1
    SWAT Sep 7    VER 2018/Rev 670                                                                       0/ 0/   0      0: 0: 0

    General Input/Output section (file.cio):                                        
    10/24/2022 12:00:00 AM ARCGIS-SWAT interface AV                                 
                                                                                    
         Number of years in run:    4
         Area of watershed:        8.744 km2
         Random number generator cycles: 0, use default numbers

         Initial random number seed: wet/dry day prob        748932582
         Initial random number seed: radiation              1948832765
         Initial random number seed: precipitation           857034417
         Initial random number seed: 0.5 hr rainfall          67377721
         Initial random number seed: wind speed              366304404
         Initial random number seed: irrigation             1094585182
         Initial random number seed: relative humidity      1767585417
         Initial random number seed: max temperature         608439319
         Initial random number seed: min temperature         592757081

         Precipitation data used in run:
          Multiple gages read for watershed
             Subdaily rainfall data used, summarized every  15min

         Temperature data used in run:
          Multiple gages simulated for watershed

         PET method used: Hargreaves

         Rainfall/Runoff/Routing Option:
          Subdaily rainfall data
          Runoff estimated with Green & Ampt method
          Hourly stream routing
           Muskingum routing method
           Channel dimensions remain constant
           Subbasin algae/CBOD loadings not modeled
           In-stream nutrient transformations modeled using QUAL2E equations

         Subbasin Input Summary:
          Sub Latitude  Elev(m) #HRUs Ponds Elevbnds Wetlnd
            1     6.21  1585.50     5                   
            2     6.21  1628.81     4                   
            3     6.21  1776.25     9                   
            4     6.21  2058.16    24                   
            5     6.21  1676.65     4                   
            6     6.21  2550.85    15                   
            7     6.21  2053.27    12                   
            8     6.21  2025.75    12                   
            9     6.21  2558.66    27                   
           10     6.21  1876.89    12                   
           11     6.21  2433.01    35                   

         HRU Input Summary Table 1:
          Sub   HRU   Area(ha) Slope SlpLgth(m) Ovrlnd_N CondII_CN TimeConc(hr) ESCO EPCO
            1      1       3.47 0.166      18.29    0.100     90.40        0.159 0.95 1.00
            1      2       2.12 0.046      91.46    0.100     90.40        0.543 0.95 1.00
            1      3       3.12 0.346       9.15    0.100     90.40        0.093 0.95 1.00
            1      4       0.61 0.568       9.15    0.100     90.40        0.067 0.95 1.00
            1      5       0.36 1.000       9.15    0.100     90.40        0.056 0.95 1.00
            2      6      13.04 0.171      18.29    0.100     90.40        0.184 0.95 1.00
            2      7       5.16 0.048      91.46    0.100     90.40        0.543 0.95 1.00
            2      8       5.96 0.307       9.15    0.100     90.40        0.100 0.95 1.00
            2      9       6.09 1.000       9.15    0.100     90.40        0.078 0.95 1.00
            3     10      16.33 0.182      18.29    0.100     90.40        0.170 0.95 1.00
            3     11       3.89 0.052      60.98    0.100     90.40        0.410 0.95 1.00
            3     12      16.61 0.335       9.15    0.100     90.40        0.111 0.95 1.00
            3     13       8.96 1.000       9.15    0.100     90.40        0.075 0.95 1.00
            3     14       2.14 0.568       9.15    0.100     90.40        0.069 0.95 1.00
            3     15       0.38 0.187      18.29    0.100     87.60        0.133 0.95 1.00
            3     16       0.13 0.050      91.46    0.100     87.60        0.516 0.95 1.00
            3     17       0.99 0.388       9.15    0.100     87.60        0.073 0.95 1.00
            3     18       0.61 0.557       9.15    0.100     87.60        0.065 0.95 1.00
            4     19       0.67 1.000       9.15    0.100     90.40        0.054 0.95 1.00
            4     20       0.23 0.045      91.46    0.100     90.40        0.533 0.95 1.00
            4     21       0.63 0.160      18.29    0.100     90.40        0.140 0.95 1.00
            4     22       0.42 0.318       9.15    0.100     90.40        0.075 0.95 1.00
            4     23       0.06 0.564       9.15    0.100     90.40        0.063 0.95 1.00
            4     24       7.69 0.181      18.29    0.100     87.60        0.146 0.95 1.00
            4     25      15.14 0.353       9.15    0.100     87.60        0.095 0.95 1.00
            4     26       9.03 1.000       9.15    0.100     87.60        0.067 0.95 1.00
            4     27       1.69 0.056      60.98    0.100     87.60        0.394 0.95 1.00
            4     28       4.75 0.583       9.15    0.100     87.60        0.070 0.95 1.00
            4     29       3.43 0.189      18.29    0.150     74.00        0.174 0.95 1.00
            4     30      10.30 0.366       9.15    0.150     74.00        0.107 0.95 1.00
            4     31       2.27 0.594       9.15    0.150     74.00        0.083 0.95 1.00
            4     32       2.99 1.000       9.15    0.150     74.00        0.073 0.95 1.00
            4     33       2.77 0.640       9.15    0.150     74.00        0.082 0.95 1.00
            4     34       1.66 0.844       9.15    0.150     74.00        0.074 0.95 1.00
            4     35       0.30 0.449       9.15    0.150     74.00        0.086 0.95 1.00
            4     36       5.96 0.386       9.15    0.100     70.00        0.080 0.95 1.00
            4     37       3.04 0.588       9.15    0.100     70.00        0.067 0.95 1.00
            4     38       2.86 1.000       9.15    0.100     70.00        0.058 0.95 1.00
            4     39       0.98 0.191      18.29    0.100     70.00        0.133 0.95 1.00
            4     40       2.52 0.637       9.15    0.100     70.00        0.065 0.95 1.00
            4     41       0.70 0.881       9.15    0.100     70.00        0.056 0.95 1.00
            4     42       0.25 0.454       9.15    0.100     70.00        0.067 0.95 1.00
            5     43      14.87 1.000       9.15    0.100     90.40        0.079 0.95 1.00
            5     44      10.12 0.052      60.98    0.100     90.40        0.418 0.95 1.00
            5     45      32.54 0.178      18.29    0.100     90.40        0.187 0.95 1.00
            5     46      24.04 0.325       9.15    0.100     90.40        0.114 0.95 1.00
            6     47       3.54 0.191      18.29    0.100     70.00        0.135 0.95 1.00
            6     48      20.65 0.398       9.15    0.100     70.00        0.088 0.95 1.00
            6     49      15.69 1.000       9.15    0.100     70.00        0.068 0.95 1.00
            6     50      19.79 0.606       9.15    0.100     70.00        0.080 0.95 1.00
            6     51      21.12 0.626       9.15    0.100     70.00        0.080 0.95 1.00
            6     52      15.18 1.000       9.15    0.100     70.00        0.067 0.95 1.00
            6     53      10.39 0.410       9.15    0.100     70.00        0.079 0.95 1.00
            6     54       5.70 0.187      18.29    0.100     70.00        0.138 0.95 1.00
            6     55       5.60 0.324       9.15    0.100     70.00        0.080 0.95 1.00
            6     56       1.36 0.054      60.98    0.100     70.00        0.397 0.95 1.00
            6     57       1.46 1.000       9.15    0.100     70.00        0.055 0.95 1.00
            6     58       3.31 1.000       9.15    0.100     87.60        0.057 0.95 1.00
            6     59       3.53 0.586       9.15    0.100     87.60        0.066 0.95 1.00
            6     60       4.33 0.386       9.15    0.100     87.60        0.075 0.95 1.00
            6     61       1.15 0.174      18.29    0.100     87.60        0.137 0.95 1.00
            7     62      10.17 0.184      18.29    0.100     90.40        0.149 0.95 1.00
            7     63       2.03 0.057      60.98    0.100     90.40        0.393 0.95 1.00
            7     64       7.93 1.000       9.15    0.100     90.40        0.066 0.95 1.00
            7     65       9.13 0.317       9.15    0.100     90.40        0.089 0.95 1.00
            7     66       9.82 0.363       9.15    0.100     87.60        0.088 0.95 1.00
            7     67       4.64 0.190      18.29    0.100     87.60        0.140 0.95 1.00
            7     68       3.08 0.579       9.15    0.100     87.60        0.068 0.95 1.00
            7     69       4.57 1.000       9.15    0.100     87.60        0.061 0.95 1.00
            7     70      11.04 1.000       9.15    0.100     70.00        0.071 0.95 1.00
            7     71      29.85 0.385       9.15    0.100     70.00        0.113 0.95 1.00
            7     72       8.64 0.577       9.15    0.100     70.00        0.077 0.95 1.00
            7     73       5.29 0.200      15.24    0.100     70.00        0.125 0.95 1.00
            8     74      13.34 0.181      18.29    0.100     90.40        0.159 0.95 1.00
            8     75      11.05 0.328       9.15    0.100     90.40        0.095 0.95 1.00
            8     76       1.72 0.056      60.98    0.100     90.40        0.395 0.95 1.00
            8     77       7.70 1.000       9.15    0.100     90.40        0.069 0.95 1.00
            8     78      21.44 0.356       9.15    0.100     87.60        0.111 0.95 1.00
            8     79       5.36 0.202      15.24    0.100     87.60        0.127 0.95 1.00
            8     80       4.35 0.578       9.15    0.100     87.60        0.072 0.95 1.00
            8     81       6.86 1.000       9.15    0.100     87.60        0.067 0.95 1.00
            8     82       4.16 0.587       9.15    0.100     70.00        0.071 0.95 1.00
            8     83      12.69 0.380       9.15    0.100     70.00        0.095 0.95 1.00
            8     84       4.55 1.000       9.15    0.100     70.00        0.063 0.95 1.00
            8     85       1.52 0.203      15.24    0.100     70.00        0.119 0.95 1.00
            9     86       2.11 0.404       9.15    0.150     74.00        0.092 0.95 1.00
            9     87       5.66 0.609       9.15    0.150     74.00        0.087 0.95 1.00
            9     88       0.62 0.793       9.15    0.150     74.00        0.073 0.95 1.00
            9     89       0.60 0.425       9.15    0.150     74.00        0.088 0.95 1.00
            9     90       0.23 0.565       9.15    0.150     74.00        0.080 0.95 1.00
            9     91       1.77 0.162      18.29    0.150     74.00        0.179 0.95 1.00
            9     92       0.08 0.253       9.15    0.150     74.00        0.102 0.95 1.00
            9     93       0.24 0.077      60.98    0.150     74.00        0.453 0.95 1.00
            9     94       2.76 0.429       9.15    0.100     70.00        0.073 0.95 1.00
            9     95      16.63 0.632       9.15    0.100     70.00        0.083 0.95 1.00
            9     96      14.29 1.000       9.15    0.100     70.00        0.073 0.95 1.00
            9     97       3.85 1.000       9.15    0.100     70.00        0.059 0.95 1.00
            9     98       7.16 0.319       9.15    0.100     70.00        0.085 0.95 1.00
            9     99       8.09 0.182      18.29    0.100     70.00        0.145 0.95 1.00
            9    100       1.59 0.055      60.98    0.100     70.00        0.396 0.95 1.00
            9    101       0.96 0.395       9.15    0.100     70.00        0.072 0.95 1.00
            9    102       1.43 0.621       9.15    0.100     70.00        0.063 0.95 1.00
            9    103       1.04 1.000       9.15    0.100     70.00        0.055 0.95 1.00
            9    104       0.37 0.214      15.24    0.100     70.00        0.115 0.95 1.00
            9    105       3.50 0.605       9.15    0.100     81.88        0.067 0.95 1.00
            9    106       3.36 0.388       9.15    0.100     81.88        0.076 0.95 1.00
            9    107       1.00 0.171      18.29    0.100     81.88        0.138 0.95 1.00
            9    108       0.84 1.000       9.15    0.100     81.88        0.054 0.95 1.00
            9    109       1.43 1.000       9.15    0.100     81.88        0.055 0.95 1.00
            9    110       4.57 0.174      18.29    0.100     81.88        0.142 0.95 1.00
            9    111       1.74 0.293       9.15    0.100     81.88        0.079 0.95 1.00
            9    112       0.84 0.064      60.98    0.100     81.88        0.377 0.95 1.00
           10    113       7.09 1.000       9.15    0.100     90.40        0.074 0.95 1.00
           10    114       3.39 0.058      60.98    0.100     90.40        0.398 0.95 1.00
           10    115      12.77 0.178      18.29    0.100     90.40        0.170 0.95 1.00
           10    116      12.47 0.331       9.15    0.100     90.40        0.108 0.95 1.00
           10    117       4.10 0.192      18.29    0.100     87.60        0.144 0.95 1.00
           10    118      12.79 0.360       9.15    0.100     87.60        0.107 0.95 1.00
           10    119       2.35 0.562       9.15    0.100     87.60        0.071 0.95 1.00
           10    120       3.57 1.000       9.15    0.100     87.60        0.064 0.95 1.00
           10    121       2.81 0.386       9.15    0.150     74.00        0.099 0.95 1.00
           10    122       0.86 0.570       9.15    0.150     74.00        0.083 0.95 1.00
           10    123       1.28 1.000       9.15    0.150     74.00        0.072 0.95 1.00
           10    124       0.31 0.194      18.29    0.150     74.00        0.168 0.95 1.00
           11    125      18.10 0.393       9.15    0.100     70.00        0.092 0.95 1.00
           11    126      27.44 0.622       9.15    0.100     70.00        0.093 0.95 1.00
           11    127      28.09 1.000       9.15    0.100     70.00        0.086 0.95 1.00
           11    128       7.84 0.340       9.15    0.100     70.00        0.084 0.95 1.00
           11    129       5.49 0.182      18.29    0.100     70.00        0.141 0.95 1.00
           11    130       0.99 0.585       9.15    0.100     70.00        0.064 0.95 1.00
           11    131       1.16 0.061      60.98    0.100     70.00        0.383 0.95 1.00
           11    132       2.49 1.000       9.15    0.100     70.00        0.057 0.95 1.00
           11    133       1.22 0.181      18.29    0.100     70.00        0.136 0.95 1.00
           11    134       4.52 0.387       9.15    0.100     70.00        0.077 0.95 1.00
           11    135       3.55 0.600       9.15    0.100     70.00        0.067 0.95 1.00
           11    136       3.11 1.000       9.15    0.100     70.00        0.058 0.95 1.00
           11    137       1.01 1.000       9.15    0.150     74.00        0.069 0.95 1.00
           11    138       1.57 0.390       9.15    0.150     74.00        0.092 0.95 1.00
           11    139       1.39 0.598       9.15    0.150     74.00        0.081 0.95 1.00
           11    140       4.07 0.347       9.15    0.150     74.00        0.098 0.95 1.00
           11    141       0.75 0.192      18.29    0.150     74.00        0.169 0.95 1.00
           11    142       0.47 1.000       9.15    0.150     74.00        0.068 0.95 1.00
           11    143       0.36 0.608       9.15    0.150     74.00        0.079 0.95 1.00
           11    144       3.74 0.350       9.15    0.100     87.60        0.078 0.95 1.00
           11    145       1.98 0.187      18.29    0.100     87.60        0.135 0.95 1.00
           11    146       0.47 0.576       9.15    0.100     87.60        0.063 0.95 1.00
           11    147       2.25 1.000       9.15    0.100     87.60        0.056 0.95 1.00
           11    148       0.06 0.040      91.46    0.100     90.40        0.551 0.95 1.00
           11    149       0.25 0.165      18.29    0.100     90.40        0.138 0.95 1.00
           11    150       0.35 0.355       9.15    0.100     90.40        0.073 0.95 1.00
           11    151       0.64 1.000       9.15    0.100     90.40        0.054 0.95 1.00
           11    152       1.45 0.066      60.98    0.100     81.88        0.374 0.95 1.00
           11    153       5.69 0.173      18.29    0.100     81.88        0.143 0.95 1.00
           11    154       3.78 0.315       9.15    0.100     81.88        0.080 0.95 1.00
           11    155       1.02 1.000       9.15    0.100     81.88        0.055 0.95 1.00
           11    156       1.33 0.371       9.15    0.100     81.88        0.073 0.95 1.00
           11    157       0.30 0.201      15.24    0.100     81.88        0.116 0.95 1.00
           11    158       0.11 1.000       9.15    0.100     81.88        0.053 0.95 1.00
           11    159       1.12 0.574       9.15    0.100     81.88        0.064 0.95 1.00

         HRU CN Input Summary Table:
          Sub   HRU   Area(ha)  LULC      Soil    CN1    CN2    CN3  Wilting Point (mm H2O)  Field Capacity (mm H2O)  Saturation (mm H2O)
            1      1       3.47  BERM  15         78.7   90.4   96.4                     0.5                      1.0                 24.0
            1      2       2.12  BERM  15         78.7   90.4   96.4                     0.5                      1.0                 24.0
            1      3       3.12  BERM  15         78.7   90.4   96.4                     0.5                      1.0                 24.0
            1      4       0.61  BERM  15         78.7   90.4   96.4                     0.5                      1.0                 24.0
            1      5       0.36  BERM  15         78.7   90.4   96.4                     0.5                      1.0                 24.0
            2      6      13.04  BERM  15         78.7   90.4   96.4                     0.5                      1.0                 24.0
            2      7       5.16  BERM  15         78.7   90.4   96.4                     0.5                      1.0                 24.0
            2      8       5.96  BERM  15         78.7   90.4   96.4                     0.5                      1.0                 24.0
            2      9       6.09  BERM  15         78.7   90.4   96.4                     0.5                      1.0                 24.0
            3     10      16.33  BERM  15         78.7   90.4   96.4                     0.5                      1.0                 24.0
            3     11       3.89  BERM  15         78.7   90.4   96.4                     0.5                      1.0                 24.0
            3     12      16.61  BERM  15         78.7   90.4   96.4                     0.5                      1.0                 24.0
            3     13       8.96  BERM  15         78.7   90.4   96.4                     0.5                      1.0                 24.0
            3     14       2.14  BERM  15         78.7   90.4   96.4                     0.5                      1.0                 24.0
            3     15       0.38  BERM  12         73.9   87.6   95.2                    41.7                    180.0                796.8
            3     16       0.13  BERM  12         73.9   87.6   95.2                    41.7                    180.0                796.8
            3     17       0.99  BERM  12         73.9   87.6   95.2                    41.7                    180.0                796.8
            3     18       0.61  BERM  12         73.9   87.6   95.2                    41.7                    180.0                796.8
            4     19       0.67  BERM  15         78.7   90.4   96.4                     0.5                      1.0                 24.0
            4     20       0.23  BERM  15         78.7   90.4   96.4                     0.5                      1.0                 24.0
            4     21       0.63  BERM  15         78.7   90.4   96.4                     0.5                      1.0                 24.0
            4     22       0.42  BERM  15         78.7   90.4   96.4                     0.5                      1.0                 24.0
            4     23       0.06  BERM  15         78.7   90.4   96.4                     0.5                      1.0                 24.0
            4     24       7.69  BERM  12         73.9   87.6   95.2                    41.7                    180.0                796.8
            4     25      15.14  BERM  12         73.9   87.6   95.2                    41.7                    180.0                796.8
            4     26       9.03  BERM  12         73.9   87.6   95.2                    41.7                    180.0                796.8
            4     27       1.69  BERM  12         73.9   87.6   95.2                    41.7                    180.0                796.8
            4     28       4.75  BERM  12         73.9   87.6   95.2                    41.7                    180.0                796.8
            4     29       3.43  RNGB  12         55.7   74.0   88.1                    41.7                    180.0                796.8
            4     30      10.30  RNGB  12         55.7   74.0   88.1                    41.7                    180.0                796.8
            4     31       2.27  RNGB  12         55.7   74.0   88.1                    41.7                    180.0                796.8
            4     32       2.99  RNGB  12         55.7   74.0   88.1                    41.7                    180.0                796.8
            4     33       2.77  RNGB  5          55.7   74.0   88.1                   112.3                    126.0                358.6
            4     34       1.66  RNGB  5          55.7   74.0   88.1                   112.3                    126.0                358.6
            4     35       0.30  RNGB  5          55.7   74.0   88.1                   112.3                    126.0                358.6
            4     36       5.96  FRSE  12         51.2   70.0   85.7                    41.7                    180.0                796.8
            4     37       3.04  FRSE  12         51.2   70.0   85.7                    41.7                    180.0                796.8
            4     38       2.86  FRSE  12         51.2   70.0   85.7                    41.7                    180.0                796.8
            4     39       0.98  FRSE  12         51.2   70.0   85.7                    41.7                    180.0                796.8
            4     40       2.52  FRSE  5          51.2   70.0   85.7                   112.3                    126.0                358.6
            4     41       0.70  FRSE  5          51.2   70.0   85.7                   112.3                    126.0                358.6
            4     42       0.25  FRSE  5          51.2   70.0   85.7                   112.3                    126.0                358.6
            5     43      14.87  BERM  15         78.7   90.4   96.4                     0.5                      1.0                 24.0
            5     44      10.12  BERM  15         78.7   90.4   96.4                     0.5                      1.0                 24.0
            5     45      32.54  BERM  15         78.7   90.4   96.4                     0.5                      1.0                 24.0
            5     46      24.04  BERM  15         78.7   90.4   96.4                     0.5                      1.0                 24.0
            6     47       3.54  FRSE  12         51.2   70.0   85.7                    41.7                    180.0                796.8
            6     48      20.65  FRSE  12         51.2   70.0   85.7                    41.7                    180.0                796.8
            6     49      15.69  FRSE  12         51.2   70.0   85.7                    41.7                    180.0                796.8
            6     50      19.79  FRSE  12         51.2   70.0   85.7                    41.7                    180.0                796.8
            6     51      21.12  FRSE  5          51.2   70.0   85.7                   112.3                    126.0                358.6
            6     52      15.18  FRSE  5          51.2   70.0   85.7                   112.3                    126.0                358.6
            6     53      10.39  FRSE  5          51.2   70.0   85.7                   112.3                    126.0                358.6
            6     54       5.70  FRSE  6          51.2   70.0   85.7                   100.5                     72.0                191.0
            6     55       5.60  FRSE  6          51.2   70.0   85.7                   100.5                     72.0                191.0
            6     56       1.36  FRSE  6          51.2   70.0   85.7                   100.5                     72.0                191.0
            6     57       1.46  FRSE  6          51.2   70.0   85.7                   100.5                     72.0                191.0
            6     58       3.31  BERM  12         73.9   87.6   95.2                    41.7                    180.0                796.8
            6     59       3.53  BERM  12         73.9   87.6   95.2                    41.7                    180.0                796.8
            6     60       4.33  BERM  12         73.9   87.6   95.2                    41.7                    180.0                796.8
            6     61       1.15  BERM  12         73.9   87.6   95.2                    41.7                    180.0                796.8
            7     62      10.17  BERM  15         78.7   90.4   96.4                     0.5                      1.0                 24.0
            7     63       2.03  BERM  15         78.7   90.4   96.4                     0.5                      1.0                 24.0
            7     64       7.93  BERM  15         78.7   90.4   96.4                     0.5                      1.0                 24.0
            7     65       9.13  BERM  15         78.7   90.4   96.4                     0.5                      1.0                 24.0
            7     66       9.82  BERM  12         73.9   87.6   95.2                    41.7                    180.0                796.8
            7     67       4.64  BERM  12         73.9   87.6   95.2                    41.7                    180.0                796.8
            7     68       3.08  BERM  12         73.9   87.6   95.2                    41.7                    180.0                796.8
            7     69       4.57  BERM  12         73.9   87.6   95.2                    41.7                    180.0                796.8
            7     70      11.04  FRSE  12         51.2   70.0   85.7                    41.7                    180.0                796.8
            7     71      29.85  FRSE  12         51.2   70.0   85.7                    41.7                    180.0                796.8
            7     72       8.64  FRSE  12         51.2   70.0   85.7                    41.7                    180.0                796.8
            7     73       5.29  FRSE  12         51.2   70.0   85.7                    41.7                    180.0                796.8
            8     74      13.34  BERM  15         78.7   90.4   96.4                     0.5                      1.0                 24.0
            8     75      11.05  BERM  15         78.7   90.4   96.4                     0.5                      1.0                 24.0
            8     76       1.72  BERM  15         78.7   90.4   96.4                     0.5                      1.0                 24.0
            8     77       7.70  BERM  15         78.7   90.4   96.4                     0.5                      1.0                 24.0
            8     78      21.44  BERM  12         73.9   87.6   95.2                    41.7                    180.0                796.8
            8     79       5.36  BERM  12         73.9   87.6   95.2                    41.7                    180.0                796.8
            8     80       4.35  BERM  12         73.9   87.6   95.2                    41.7                    180.0                796.8
            8     81       6.86  BERM  12         73.9   87.6   95.2                    41.7                    180.0                796.8
            8     82       4.16  FRSE  12         51.2   70.0   85.7                    41.7                    180.0                796.8
            8     83      12.69  FRSE  12         51.2   70.0   85.7                    41.7                    180.0                796.8
            8     84       4.55  FRSE  12         51.2   70.0   85.7                    41.7                    180.0                796.8
            8     85       1.52  FRSE  12         51.2   70.0   85.7                    41.7                    180.0                796.8
            9     86       2.11  RNGB  5          55.7   74.0   88.1                   112.3                    126.0                358.6
            9     87       5.66  RNGB  5          55.7   74.0   88.1                   112.3                    126.0                358.6
            9     88       0.62  RNGB  5          55.7   74.0   88.1                   112.3                    126.0                358.6
            9     89       0.60  RNGB  12         55.7   74.0   88.1                    41.7                    180.0                796.8
            9     90       0.23  RNGB  12         55.7   74.0   88.1                    41.7                    180.0                796.8
            9     91       1.77  RNGB  6          55.7   74.0   88.1                   100.5                     72.0                191.0
            9     92       0.08  RNGB  6          55.7   74.0   88.1                   100.5                     72.0                191.0
            9     93       0.24  RNGB  6          55.7   74.0   88.1                   100.5                     72.0                191.0
            9     94       2.76  FRSE  5          51.2   70.0   85.7                   112.3                    126.0                358.6
            9     95      16.63  FRSE  5          51.2   70.0   85.7                   112.3                    126.0                358.6
            9     96      14.29  FRSE  5          51.2   70.0   85.7                   112.3                    126.0                358.6
            9     97       3.85  FRSE  6          51.2   70.0   85.7                   100.5                     72.0                191.0
            9     98       7.16  FRSE  6          51.2   70.0   85.7                   100.5                     72.0                191.0
            9     99       8.09  FRSE  6          51.2   70.0   85.7                   100.5                     72.0                191.0
            9    100       1.59  FRSE  6          51.2   70.0   85.7                   100.5                     72.0                191.0
            9    101       0.96  FRSE  12         51.2   70.0   85.7                    41.7                    180.0                796.8
            9    102       1.43  FRSE  12         51.2   70.0   85.7                    41.7                    180.0                796.8
            9    103       1.04  FRSE  12         51.2   70.0   85.7                    41.7                    180.0                796.8
            9    104       0.37  FRSE  12         51.2   70.0   85.7                    41.7                    180.0                796.8
            9    105       3.50  BERM  5          65.5   81.9   92.5                   112.3                    126.0                358.6
            9    106       3.36  BERM  5          65.5   81.9   92.5                   112.3                    126.0                358.6
            9    107       1.00  BERM  5          65.5   81.9   92.5                   112.3                    126.0                358.6
            9    108       0.84  BERM  5          65.5   81.9   92.5                   112.3                    126.0                358.6
            9    109       1.43  BERM  6          65.5   81.9   92.5                   100.5                     72.0                191.0
            9    110       4.57  BERM  6          65.5   81.9   92.5                   100.5                     72.0                191.0
            9    111       1.74  BERM  6          65.5   81.9   92.5                   100.5                     72.0                191.0
            9    112       0.84  BERM  6          65.5   81.9   92.5                   100.5                     72.0                191.0
           10    113       7.09  BERM  15         78.7   90.4   96.4                     0.5                      1.0                 24.0
           10    114       3.39  BERM  15         78.7   90.4   96.4                     0.5                      1.0                 24.0
           10    115      12.77  BERM  15         78.7   90.4   96.4                     0.5                      1.0                 24.0
           10    116      12.47  BERM  15         78.7   90.4   96.4                     0.5                      1.0                 24.0
           10    117       4.10  BERM  12         73.9   87.6   95.2                    41.7                    180.0                796.8
           10    118      12.79  BERM  12         73.9   87.6   95.2                    41.7                    180.0                796.8
           10    119       2.35  BERM  12         73.9   87.6   95.2                    41.7                    180.0                796.8
           10    120       3.57  BERM  12         73.9   87.6   95.2                    41.7                    180.0                796.8
           10    121       2.81  RNGB  12         55.7   74.0   88.1                    41.7                    180.0                796.8
           10    122       0.86  RNGB  12         55.7   74.0   88.1                    41.7                    180.0                796.8
           10    123       1.28  RNGB  12         55.7   74.0   88.1                    41.7                    180.0                796.8
           10    124       0.31  RNGB  12         55.7   74.0   88.1                    41.7                    180.0                796.8
           11    125      18.10  FRSE  5          51.2   70.0   85.7                   112.3                    126.0                358.6
           11    126      27.44  FRSE  5          51.2   70.0   85.7                   112.3                    126.0                358.6
           11    127      28.09  FRSE  5          51.2   70.0   85.7                   112.3                    126.0                358.6
           11    128       7.84  FRSE  6          51.2   70.0   85.7                   100.5                     72.0                191.0
           11    129       5.49  FRSE  6          51.2   70.0   85.7                   100.5                     72.0                191.0
           11    130       0.99  FRSE  6          51.2   70.0   85.7                   100.5                     72.0                191.0
           11    131       1.16  FRSE  6          51.2   70.0   85.7                   100.5                     72.0                191.0
           11    132       2.49  FRSE  6          51.2   70.0   85.7                   100.5                     72.0                191.0
           11    133       1.22  FRSE  12         51.2   70.0   85.7                    41.7                    180.0                796.8
           11    134       4.52  FRSE  12         51.2   70.0   85.7                    41.7                    180.0                796.8
           11    135       3.55  FRSE  12         51.2   70.0   85.7                    41.7                    180.0                796.8
           11    136       3.11  FRSE  12         51.2   70.0   85.7                    41.7                    180.0                796.8
           11    137       1.01  RNGB  5          55.7   74.0   88.1                   112.3                    126.0                358.6
           11    138       1.57  RNGB  5          55.7   74.0   88.1                   112.3                    126.0                358.6
           11    139       1.39  RNGB  5          55.7   74.0   88.1                   112.3                    126.0                358.6
           11    140       4.07  RNGB  12         55.7   74.0   88.1                    41.7                    180.0                796.8
           11    141       0.75  RNGB  12         55.7   74.0   88.1                    41.7                    180.0                796.8
           11    142       0.47  RNGB  12         55.7   74.0   88.1                    41.7                    180.0                796.8
           11    143       0.36  RNGB  12         55.7   74.0   88.1                    41.7                    180.0                796.8
           11    144       3.74  BERM  12         73.9   87.6   95.2                    41.7                    180.0                796.8
           11    145       1.98  BERM  12         73.9   87.6   95.2                    41.7                    180.0                796.8
           11    146       0.47  BERM  12         73.9   87.6   95.2                    41.7                    180.0                796.8
           11    147       2.25  BERM  12         73.9   87.6   95.2                    41.7                    180.0                796.8
           11    148       0.06  BERM  15         78.7   90.4   96.4                     0.5                      1.0                 24.0
           11    149       0.25  BERM  15         78.7   90.4   96.4                     0.5                      1.0                 24.0
           11    150       0.35  BERM  15         78.7   90.4   96.4                     0.5                      1.0                 24.0
           11    151       0.64  BERM  15         78.7   90.4   96.4                     0.5                      1.0                 24.0
           11    152       1.45  BERM  6          65.5   81.9   92.5                   100.5                     72.0                191.0
           11    153       5.69  BERM  6          65.5   81.9   92.5                   100.5                     72.0                191.0
           11    154       3.78  BERM  6          65.5   81.9   92.5                   100.5                     72.0                191.0
           11    155       1.02  BERM  6          65.5   81.9   92.5                   100.5                     72.0                191.0
           11    156       1.33  BERM  5          65.5   81.9   92.5                   112.3                    126.0                358.6
           11    157       0.30  BERM  5          65.5   81.9   92.5                   112.3                    126.0                358.6
           11    158       0.11  BERM  5          65.5   81.9   92.5                   112.3                    126.0                358.6
           11    159       1.12  BERM  5          65.5   81.9   92.5                   112.3                    126.0                358.6

         HRU Input Summary Table 2:
          Sub   HRU   Area(ha)         SoilName Hydgrp MaxRtDpth(mm) Albedo USLE_K USLE_P USLE_LS ProfileAWC(mm) IniSoilH2O(mm)
            1      1       3.47 15                 D           100.00   0.10   0.00   1.00    2.29      1.000          0.926
            1      2       2.12 15                 D           100.00   0.10   0.00   1.00    0.82      1.000          0.926
            1      3       3.12 15                 D           100.00   0.10   0.00   1.00    5.03      1.000          0.926
            1      4       0.61 15                 D           100.00   0.10   0.00   1.00   10.75      1.000          0.926
            1      5       0.36 15                 D           100.00   0.10   0.00   1.00   21.18      1.000          0.926
            2      6      13.04 15                 D           100.00   0.10   0.00   1.00    2.40      1.000          0.926
            2      7       5.16 15                 D           100.00   0.10   0.00   1.00    0.87      1.000          0.926
            2      8       5.96 15                 D           100.00   0.10   0.00   1.00    4.14      1.000          0.926
            2      9       6.09 15                 D           100.00   0.10   0.00   1.00   21.18      1.000          0.926
            3     10      16.33 15                 D           100.00   0.10   0.00   1.00    2.66      1.000          0.926
            3     11       3.89 15                 D           100.00   0.10   0.00   1.00    0.80      1.000          0.926
            3     12      16.61 15                 D           100.00   0.10   0.00   1.00    4.78      1.000          0.926
            3     13       8.96 15                 D           100.00   0.10   0.00   1.00   21.18      1.000          0.926
            3     14       2.14 15                 D           100.00   0.10   0.00   1.00   10.75      1.000          0.926
            3     15       0.38 12                 C          1400.00   0.26   0.49   1.00    2.78    180.000        166.737
            3     16       0.13 12                 C          1400.00   0.26   0.49   1.00    0.93    180.000        166.737
            3     17       0.99 12                 C          1400.00   0.26   0.49   1.00    6.05    180.000        166.737
            3     18       0.61 12                 C          1400.00   0.26   0.49   1.00   10.46    180.000        166.737
            4     19       0.67 15                 D           100.00   0.10   0.00   1.00   21.18      1.000          0.926
            4     20       0.23 15                 D           100.00   0.10   0.00   1.00    0.80      1.000          0.926
            4     21       0.63 15                 D           100.00   0.10   0.00   1.00    2.16      1.000          0.926
            4     22       0.42 15                 D           100.00   0.10   0.00   1.00    4.39      1.000          0.926
            4     23       0.06 15                 D           100.00   0.10   0.00   1.00   10.65      1.000          0.926
            4     24       7.69 12                 C          1400.00   0.26   0.49   1.00    2.63    180.000        166.737
            4     25      15.14 12                 C          1400.00   0.26   0.49   1.00    5.20    180.000        166.737
            4     26       9.03 12                 C          1400.00   0.26   0.49   1.00   21.18    180.000        166.737
            4     27       1.69 12                 C          1400.00   0.26   0.49   1.00    0.89    180.000        166.737
            4     28       4.75 12                 C          1400.00   0.26   0.49   1.00   11.16    180.000        166.737
            4     29       3.43 12                 C          1400.00   0.26   0.49   1.00    2.83    180.000        166.737
            4     30      10.30 12                 C          1400.00   0.26   0.49   1.00    5.51    180.000        166.737
            4     31       2.27 12                 C          1400.00   0.26   0.49   1.00   11.45    180.000        166.737
            4     32       2.99 12                 C          1400.00   0.26   0.49   1.00   21.18    180.000        166.737
            4     33       2.77 5                  C          1200.00   0.10   0.84   1.00   12.67    126.000        116.716
            4     34       1.66 5                  C          1200.00   0.10   0.84   1.00   17.78    126.000        116.716
            4     35       0.30 5                  C          1200.00   0.10   0.84   1.00    7.60    126.000        116.716
            4     36       5.96 12                 C          1400.00   0.26   0.49   1.00    6.00    180.000        166.737
            4     37       3.04 12                 C          1400.00   0.26   0.49   1.00   11.29    180.000        166.737
            4     38       2.86 12                 C          1400.00   0.26   0.49   1.00   21.18    180.000        166.737
            4     39       0.98 12                 C          1400.00   0.26   0.49   1.00    2.88    180.000        166.737
            4     40       2.52 5                  C          1200.00   0.10   0.84   1.00   12.59    126.000        116.716
            4     41       0.70 5                  C          1200.00   0.10   0.84   1.00   18.63    126.000        116.716
            4     42       0.25 5                  C          1200.00   0.10   0.84   1.00    7.73    126.000        116.716
            5     43      14.87 15                 D           100.00   0.10   0.00   1.00   21.18      1.000          0.926
            5     44      10.12 15                 D           100.00   0.10   0.00   1.00    0.80      1.000          0.926
            5     45      32.54 15                 D           100.00   0.10   0.00   1.00    2.56      1.000          0.926
            5     46      24.04 15                 D           100.00   0.10   0.00   1.00    4.55      1.000          0.926
            6     47       3.54 12                 C          1400.00   0.26   0.49   1.00    2.88    180.000        166.737
            6     48      20.65 12                 C          1400.00   0.26   0.49   1.00    6.29    180.000        166.737
            6     49      15.69 12                 C          1400.00   0.26   0.49   1.00   21.18    180.000        166.737
            6     50      19.79 12                 C          1400.00   0.26   0.49   1.00   11.77    180.000        166.737
            6     51      21.12 5                  C          1200.00   0.10   0.84   1.00   12.30    126.000        116.716
            6     52      15.18 5                  C          1200.00   0.10   0.84   1.00   21.18    126.000        116.716
            6     53      10.39 5                  C          1200.00   0.10   0.84   1.00    6.60    126.000        116.716
            6     54       5.70 6                  C          1400.00   0.10   0.08   1.00    2.78     72.000         66.695
            6     55       5.60 6                  C          1400.00   0.10   0.08   1.00    4.52     72.000         66.695
            6     56       1.36 6                  C          1400.00   0.10   0.08   1.00    0.84     72.000         66.695
            6     57       1.46 6                  C          1400.00   0.10   0.08   1.00   21.18     72.000         66.695
            6     58       3.31 12                 C          1400.00   0.26   0.49   1.00   21.18    180.000        166.737
            6     59       3.53 12                 C          1400.00   0.26   0.49   1.00   11.24    180.000        166.737
            6     60       4.33 12                 C          1400.00   0.26   0.49   1.00    6.00    180.000        166.737
            6     61       1.15 12                 C          1400.00   0.26   0.49   1.00    2.47    180.000        166.737
            7     62      10.17 15                 D           100.00   0.10   0.00   1.00    2.71      1.000          0.926
            7     63       2.03 15                 D           100.00   0.10   0.00   1.00    0.91      1.000          0.926
            7     64       7.93 15                 D           100.00   0.10   0.00   1.00   21.18      1.000          0.926
            7     65       9.13 15                 D           100.00   0.10   0.00   1.00    4.36      1.000          0.926
            7     66       9.82 12                 C          1400.00   0.26   0.49   1.00    5.44    180.000        166.737
            7     67       4.64 12                 C          1400.00   0.26   0.49   1.00    2.85    180.000        166.737
            7     68       3.08 12                 C          1400.00   0.26   0.49   1.00   11.05    180.000        166.737
            7     69       4.57 12                 C          1400.00   0.26   0.49   1.00   21.18    180.000        166.737
            7     70      11.04 12                 C          1400.00   0.26   0.49   1.00   21.18    180.000        166.737
            7     71      29.85 12                 C          1400.00   0.26   0.49   1.00    5.97    180.000        166.737
            7     72       8.64 12                 C          1400.00   0.26   0.49   1.00   10.99    180.000        166.737
            7     73       5.29 12                 C          1400.00   0.26   0.49   1.00    2.78    180.000        166.737
            8     74      13.34 15                 D           100.00   0.10   0.00   1.00    2.63      1.000          0.926
            8     75      11.05 15                 D           100.00   0.10   0.00   1.00    4.61      1.000          0.926
            8     76       1.72 15                 D           100.00   0.10   0.00   1.00    0.89      1.000          0.926
            8     77       7.70 15                 D           100.00   0.10   0.00   1.00   21.18      1.000          0.926
            8     78      21.44 12                 C          1400.00   0.26   0.49   1.00    5.27    180.000        166.737
            8     79       5.36 12                 C          1400.00   0.26   0.49   1.00    2.82    180.000        166.737
            8     80       4.35 12                 C          1400.00   0.26   0.49   1.00   11.02    180.000        166.737
            8     81       6.86 12                 C          1400.00   0.26   0.49   1.00   21.18    180.000        166.737
            8     82       4.16 12                 C          1400.00   0.26   0.49   1.00   11.26    180.000        166.737
            8     83      12.69 12                 C          1400.00   0.26   0.49   1.00    5.85    180.000        166.737
            8     84       4.55 12                 C          1400.00   0.26   0.49   1.00   21.18    180.000        166.737
            8     85       1.52 12                 C          1400.00   0.26   0.49   1.00    2.85    180.000        166.737
            9     86       2.11 5                  C          1200.00   0.10   0.84   1.00    6.45    126.000        116.716
            9     87       5.66 5                  C          1200.00   0.10   0.84   1.00   11.85    126.000        116.716
            9     88       0.62 5                  C          1200.00   0.10   0.84   1.00   16.57    126.000        116.716
            9     89       0.60 12                 C          1400.00   0.26   0.49   1.00    6.98    180.000        166.737
            9     90       0.23 12                 C          1400.00   0.26   0.49   1.00   10.67    180.000        166.737
            9     91       1.77 6                  C          1400.00   0.10   0.08   1.00    2.20     72.000         66.695
            9     92       0.08 6                  C          1400.00   0.10   0.08   1.00    3.01     72.000         66.695
            9     93       0.24 6                  C          1400.00   0.10   0.08   1.00    1.42     72.000         66.695
            9     94       2.76 5                  C          1200.00   0.10   0.84   1.00    7.08    126.000        116.716
            9     95      16.63 5                  C          1200.00   0.10   0.84   1.00   12.46    126.000        116.716
            9     96      14.29 5                  C          1200.00   0.10   0.84   1.00   21.18    126.000        116.716
            9     97       3.85 6                  C          1400.00   0.10   0.08   1.00   21.18     72.000         66.695
            9     98       7.16 6                  C          1400.00   0.10   0.08   1.00    4.41     72.000         66.695
            9     99       8.09 6                  C          1400.00   0.10   0.08   1.00    2.66     72.000         66.695
            9    100       1.59 6                  C          1400.00   0.10   0.08   1.00    0.87     72.000         66.695
            9    101       0.96 12                 C          1400.00   0.26   0.49   1.00    6.22    180.000        166.737
            9    102       1.43 12                 C          1400.00   0.26   0.49   1.00   12.17    180.000        166.737
            9    103       1.04 12                 C          1400.00   0.26   0.49   1.00   21.18    180.000        166.737
            9    104       0.37 12                 C          1400.00   0.26   0.49   1.00    3.11    180.000        166.737
            9    105       3.50 5                  C          1200.00   0.10   0.84   1.00   11.74    126.000        116.716
            9    106       3.36 5                  C          1200.00   0.10   0.84   1.00    6.05    126.000        116.716
            9    107       1.00 5                  C          1200.00   0.10   0.84   1.00    2.40    126.000        116.716
            9    108       0.84 5                  C          1200.00   0.10   0.84   1.00   21.18    126.000        116.716
            9    109       1.43 6                  C          1400.00   0.10   0.08   1.00   21.18     72.000         66.695
            9    110       4.57 6                  C          1400.00   0.10   0.08   1.00    2.47     72.000         66.695
            9    111       1.74 6                  C          1400.00   0.10   0.08   1.00    3.84     72.000         66.695
            9    112       0.84 6                  C          1400.00   0.10   0.08   1.00    1.08     72.000         66.695
           10    113       7.09 15                 D           100.00   0.10   0.00   1.00   21.18      1.000          0.926
           10    114       3.39 15                 D           100.00   0.10   0.00   1.00    0.93      1.000          0.926
           10    115      12.77 15                 D           100.00   0.10   0.00   1.00    2.56      1.000          0.926
           10    116      12.47 15                 D           100.00   0.10   0.00   1.00    4.68      1.000          0.926
           10    117       4.10 12                 C          1400.00   0.26   0.49   1.00    2.90    180.000        166.737
           10    118      12.79 12                 C          1400.00   0.26   0.49   1.00    5.36    180.000        166.737
           10    119       2.35 12                 C          1400.00   0.26   0.49   1.00   10.59    180.000        166.737
           10    120       3.57 12                 C          1400.00   0.26   0.49   1.00   21.18    180.000        166.737
           10    121       2.81 12                 C          1400.00   0.26   0.49   1.00    6.00    180.000        166.737
           10    122       0.86 12                 C          1400.00   0.26   0.49   1.00   10.81    180.000        166.737
           10    123       1.28 12                 C          1400.00   0.26   0.49   1.00   21.18    180.000        166.737
           10    124       0.31 12                 C          1400.00   0.26   0.49   1.00    2.95    180.000        166.737
           11    125      18.10 5                  C          1200.00   0.10   0.84   1.00    6.17    126.000        116.716
           11    126      27.44 5                  C          1200.00   0.10   0.84   1.00   12.19    126.000        116.716
           11    127      28.09 5                  C          1200.00   0.10   0.84   1.00   21.18    126.000        116.716
           11    128       7.84 6                  C          1400.00   0.10   0.08   1.00    4.89     72.000         66.695
           11    129       5.49 6                  C          1400.00   0.10   0.08   1.00    2.66     72.000         66.695
           11    130       0.99 6                  C          1400.00   0.10   0.08   1.00   11.21     72.000         66.695
           11    131       1.16 6                  C          1400.00   0.10   0.08   1.00    1.00     72.000         66.695
           11    132       2.49 6                  C          1400.00   0.10   0.08   1.00   21.18     72.000         66.695
           11    133       1.22 12                 C          1400.00   0.26   0.49   1.00    2.63    180.000        166.737
           11    134       4.52 12                 C          1400.00   0.26   0.49   1.00    6.02    180.000        166.737
           11    135       3.55 12                 C          1400.00   0.26   0.49   1.00   11.61    180.000        166.737
           11    136       3.11 12                 C          1400.00   0.26   0.49   1.00   21.18    180.000        166.737
           11    137       1.01 5                  C          1200.00   0.10   0.84   1.00   21.18    126.000        116.716
           11    138       1.57 5                  C          1200.00   0.10   0.84   1.00    6.10    126.000        116.716
           11    139       1.39 5                  C          1200.00   0.10   0.84   1.00   11.56    126.000        116.716
           11    140       4.07 12                 C          1400.00   0.26   0.49   1.00    5.06    180.000        166.737
           11    141       0.75 12                 C          1400.00   0.26   0.49   1.00    2.90    180.000        166.737
           11    142       0.47 12                 C          1400.00   0.26   0.49   1.00   21.18    180.000        166.737
           11    143       0.36 12                 C          1400.00   0.26   0.49   1.00   11.82    180.000        166.737
           11    144       3.74 12                 C          1400.00   0.26   0.49   1.00    5.13    180.000        166.737
           11    145       1.98 12                 C          1400.00   0.26   0.49   1.00    2.78    180.000        166.737
           11    146       0.47 12                 C          1400.00   0.26   0.49   1.00   10.97    180.000        166.737
           11    147       2.25 12                 C          1400.00   0.26   0.49   1.00   21.18    180.000        166.737
           11    148       0.06 15                 D           100.00   0.10   0.00   1.00    0.67      1.000          0.926
           11    149       0.25 15                 D           100.00   0.10   0.00   1.00    2.27      1.000          0.926
           11    150       0.35 15                 D           100.00   0.10   0.00   1.00    5.24      1.000          0.926
           11    151       0.64 15                 D           100.00   0.10   0.00   1.00   21.18      1.000          0.926
           11    152       1.45 6                  C          1400.00   0.10   0.08   1.00    1.13     72.000         66.695
           11    153       5.69 6                  C          1400.00   0.10   0.08   1.00    2.45     72.000         66.695
           11    154       3.78 6                  C          1400.00   0.10   0.08   1.00    4.32     72.000         66.695
           11    155       1.02 6                  C          1400.00   0.10   0.08   1.00   21.18     72.000         66.695
           11    156       1.33 5                  C          1200.00   0.10   0.84   1.00    5.63    126.000        116.716
           11    157       0.30 5                  C          1200.00   0.10   0.84   1.00    2.80    126.000        116.716
           11    158       0.11 5                  C          1200.00   0.10   0.84   1.00   21.18    126.000        116.716
           11    159       1.12 5                  C          1200.00   0.10   0.84   1.00   10.91    126.000        116.716

         HRU Input Summary Table 3:
          Sub   HRU   Area(ha) Urban Irrig DrainTiles Pothole Pstcide Biomix Septic
            1      1       3.47   x                                      0.20 x
            1      2       2.12   x                                      0.20 x
            1      3       3.12   x                                      0.20 x
            1      4       0.61   x                                      0.20 x
            1      5       0.36   x                                      0.20 x
            2      6      13.04   x                                      0.20 x
            2      7       5.16   x                                      0.20 x
            2      8       5.96   x                                      0.20 x
            2      9       6.09   x                                      0.20 x
            3     10      16.33   x                                      0.20 x
            3     11       3.89   x                                      0.20 x
            3     12      16.61   x                                      0.20 x
            3     13       8.96   x                                      0.20 x
            3     14       2.14   x                                      0.20 x
            3     15       0.38   x                                      0.20 x
            3     16       0.13   x                                      0.20 x
            3     17       0.99   x                                      0.20 x
            3     18       0.61   x                                      0.20 x
            4     19       0.67   x                                      0.20 x
            4     20       0.23   x                                      0.20 x
            4     21       0.63   x                                      0.20 x
            4     22       0.42   x                                      0.20 x
            4     23       0.06   x                                      0.20 x
            4     24       7.69   x                                      0.20 x
            4     25      15.14   x                                      0.20 x
            4     26       9.03   x                                      0.20 x
            4     27       1.69   x                                      0.20 x
            4     28       4.75   x                                      0.20 x
            4     29       3.43                                          0.20 x
            4     30      10.30                                          0.20 x
            4     31       2.27                                          0.20 x
            4     32       2.99                                          0.20 x
            4     33       2.77                                          0.20 x
            4     34       1.66                                          0.20 x
            4     35       0.30                                          0.20 x
            4     36       5.96                                          0.20 x
            4     37       3.04                                          0.20 x
            4     38       2.86                                          0.20 x
            4     39       0.98                                          0.20 x
            4     40       2.52                                          0.20 x
            4     41       0.70                                          0.20 x
            4     42       0.25                                          0.20 x
            5     43      14.87   x                                      0.20 x
            5     44      10.12   x                                      0.20 x
            5     45      32.54   x                                      0.20 x
            5     46      24.04   x                                      0.20 x
            6     47       3.54                                          0.20 x
            6     48      20.65                                          0.20 x
            6     49      15.69                                          0.20 x
            6     50      19.79                                          0.20 x
            6     51      21.12                                          0.20 x
            6     52      15.18                                          0.20 x
            6     53      10.39                                          0.20 x
            6     54       5.70                                          0.20 x
            6     55       5.60                                          0.20 x
            6     56       1.36                                          0.20 x
            6     57       1.46                                          0.20 x
            6     58       3.31   x                                      0.20 x
            6     59       3.53   x                                      0.20 x
            6     60       4.33   x                                      0.20 x
            6     61       1.15   x                                      0.20 x
            7     62      10.17   x                                      0.20 x
            7     63       2.03   x                                      0.20 x
            7     64       7.93   x                                      0.20 x
            7     65       9.13   x                                      0.20 x
            7     66       9.82   x                                      0.20 x
            7     67       4.64   x                                      0.20 x
            7     68       3.08   x                                      0.20 x
            7     69       4.57   x                                      0.20 x
            7     70      11.04                                          0.20 x
            7     71      29.85                                          0.20 x
            7     72       8.64                                          0.20 x
            7     73       5.29                                          0.20 x
            8     74      13.34   x                                      0.20 x
            8     75      11.05   x                                      0.20 x
            8     76       1.72   x                                      0.20 x
            8     77       7.70   x                                      0.20 x
            8     78      21.44   x                                      0.20 x
            8     79       5.36   x                                      0.20 x
            8     80       4.35   x                                      0.20 x
            8     81       6.86   x                                      0.20 x
            8     82       4.16                                          0.20 x
            8     83      12.69                                          0.20 x
            8     84       4.55                                          0.20 x
            8     85       1.52                                          0.20 x
            9     86       2.11                                          0.20 x
            9     87       5.66                                          0.20 x
            9     88       0.62                                          0.20 x
            9     89       0.60                                          0.20 x
            9     90       0.23                                          0.20 x
            9     91       1.77                                          0.20 x
            9     92       0.08                                          0.20 x
            9     93       0.24                                          0.20 x
            9     94       2.76                                          0.20 x
            9     95      16.63                                          0.20 x
            9     96      14.29                                          0.20 x
            9     97       3.85                                          0.20 x
            9     98       7.16                                          0.20 x
            9     99       8.09                                          0.20 x
            9    100       1.59                                          0.20 x
            9    101       0.96                                          0.20 x
            9    102       1.43                                          0.20 x
            9    103       1.04                                          0.20 x
            9    104       0.37                                          0.20 x
            9    105       3.50   x                                      0.20 x
            9    106       3.36   x                                      0.20 x
            9    107       1.00   x                                      0.20 x
            9    108       0.84   x                                      0.20 x
            9    109       1.43   x                                      0.20 x
            9    110       4.57   x                                      0.20 x
            9    111       1.74   x                                      0.20 x
            9    112       0.84   x                                      0.20 x
           10    113       7.09   x                                      0.20 x
           10    114       3.39   x                                      0.20 x
           10    115      12.77   x                                      0.20 x
           10    116      12.47   x                                      0.20 x
           10    117       4.10   x                                      0.20 x
           10    118      12.79   x                                      0.20 x
           10    119       2.35   x                                      0.20 x
           10    120       3.57   x                                      0.20 x
           10    121       2.81                                          0.20 x
           10    122       0.86                                          0.20 x
           10    123       1.28                                          0.20 x
           10    124       0.31                                          0.20 x
           11    125      18.10                                          0.20 x
           11    126      27.44                                          0.20 x
           11    127      28.09                                          0.20 x
           11    128       7.84                                          0.20 x
           11    129       5.49                                          0.20 x
           11    130       0.99                                          0.20 x
           11    131       1.16                                          0.20 x
           11    132       2.49                                          0.20 x
           11    133       1.22                                          0.20 x
           11    134       4.52                                          0.20 x
           11    135       3.55                                          0.20 x
           11    136       3.11                                          0.20 x
           11    137       1.01                                          0.20 x
           11    138       1.57                                          0.20 x
           11    139       1.39                                          0.20 x
           11    140       4.07                                          0.20 x
           11    141       0.75                                          0.20 x
           11    142       0.47                                          0.20 x
           11    143       0.36                                          0.20 x
           11    144       3.74   x                                      0.20 x
           11    145       1.98   x                                      0.20 x
           11    146       0.47   x                                      0.20 x
           11    147       2.25   x                                      0.20 x
           11    148       0.06   x                                      0.20 x
           11    149       0.25   x                                      0.20 x
           11    150       0.35   x                                      0.20 x
           11    151       0.64   x                                      0.20 x
           11    152       1.45   x                                      0.20 x
           11    153       5.69   x                                      0.20 x
           11    154       3.78   x                                      0.20 x
           11    155       1.02   x                                      0.20 x
           11    156       1.33   x                                      0.20 x
           11    157       0.30   x                                      0.20 x
           11    158       0.11   x                                      0.20 x
           11    159       1.12   x                                      0.20 x

         HRU Input Summary Table 4 (Groundwater):
          Sub   HRU   Area(ha) GWdelay(days), GWalpha(days) GWQmin(mm) GWrevap Revapmin(mm) Deepfr NO3(ppm) SolP(ppm)
            1      1       3.47        31.000         0.048   1000.000   0.020      750.000  0.050    0.000     0.000
            1      2       2.12        31.000         0.048   1000.000   0.020      750.000  0.050    0.000     0.000
            1      3       3.12        31.000         0.048   1000.000   0.020      750.000  0.050    0.000     0.000
            1      4       0.61        31.000         0.048   1000.000   0.020      750.000  0.050    0.000     0.000
            1      5       0.36        31.000         0.048   1000.000   0.020      750.000  0.050    0.000     0.000
            2      6      13.04        31.000         0.048   1000.000   0.020      750.000  0.050    0.000     0.000
            2      7       5.16        31.000         0.048   1000.000   0.020      750.000  0.050    0.000     0.000
            2      8       5.96        31.000         0.048   1000.000   0.020      750.000  0.050    0.000     0.000
            2      9       6.09        31.000         0.048   1000.000   0.020      750.000  0.050    0.000     0.000
            3     10      16.33        31.000         0.048   1000.000   0.020      750.000  0.050    0.000     0.000
            3     11       3.89        31.000         0.048   1000.000   0.020      750.000  0.050    0.000     0.000
            3     12      16.61        31.000         0.048   1000.000   0.020      750.000  0.050    0.000     0.000
            3     13       8.96        31.000         0.048   1000.000   0.020      750.000  0.050    0.000     0.000
            3     14       2.14        31.000         0.048   1000.000   0.020      750.000  0.050    0.000     0.000
            3     15       0.38        31.000         0.048   1000.000   0.020      750.000  0.050    0.000     0.000
            3     16       0.13        31.000         0.048   1000.000   0.020      750.000  0.050    0.000     0.000
            3     17       0.99        31.000         0.048   1000.000   0.020      750.000  0.050    0.000     0.000
            3     18       0.61        31.000         0.048   1000.000   0.020      750.000  0.050    0.000     0.000
            4     19       0.67        31.000         0.048   1000.000   0.020      750.000  0.050    0.000     0.000
            4     20       0.23        31.000         0.048   1000.000   0.020      750.000  0.050    0.000     0.000
            4     21       0.63        31.000         0.048   1000.000   0.020      750.000  0.050    0.000     0.000
            4     22       0.42        31.000         0.048   1000.000   0.020      750.000  0.050    0.000     0.000
            4     23       0.06        31.000         0.048   1000.000   0.020      750.000  0.050    0.000     0.000
            4     24       7.69        31.000         0.048   1000.000   0.020      750.000  0.050    0.000     0.000
            4     25      15.14        31.000         0.048   1000.000   0.020      750.000  0.050    0.000     0.000
            4     26       9.03        31.000         0.048   1000.000   0.020      750.000  0.050    0.000     0.000
            4     27       1.69        31.000         0.048   1000.000   0.020      750.000  0.050    0.000     0.000
            4     28       4.75        31.000         0.048   1000.000   0.020      750.000  0.050    0.000     0.000
            4     29       3.43        31.000         0.048   1000.000   0.020      750.000  0.050    0.000     0.000
            4     30      10.30        31.000         0.048   1000.000   0.020      750.000  0.050    0.000     0.000
            4     31       2.27        31.000         0.048   1000.000   0.020      750.000  0.050    0.000     0.000
            4     32       2.99        31.000         0.048   1000.000   0.020      750.000  0.050    0.000     0.000
            4     33       2.77        31.000         0.048   1000.000   0.020      750.000  0.050    0.000     0.000
            4     34       1.66        31.000         0.048   1000.000   0.020      750.000  0.050    0.000     0.000
            4     35       0.30        31.000         0.048   1000.000   0.020      750.000  0.050    0.000     0.000
            4     36       5.96        31.000         0.048   1000.000   0.020      750.000  0.050    0.000     0.000
            4     37       3.04        31.000         0.048   1000.000   0.020      750.000  0.050    0.000     0.000
            4     38       2.86        31.000         0.048   1000.000   0.020      750.000  0.050    0.000     0.000
            4     39       0.98        31.000         0.048   1000.000   0.020      750.000  0.050    0.000     0.000
            4     40       2.52        31.000         0.048   1000.000   0.020      750.000  0.050    0.000     0.000
            4     41       0.70        31.000         0.048   1000.000   0.020      750.000  0.050    0.000     0.000
            4     42       0.25        31.000         0.048   1000.000   0.020      750.000  0.050    0.000     0.000
            5     43      14.87        31.000         0.048   1000.000   0.020      750.000  0.050    0.000     0.000
            5     44      10.12        31.000         0.048   1000.000   0.020      750.000  0.050    0.000     0.000
            5     45      32.54        31.000         0.048   1000.000   0.020      750.000  0.050    0.000     0.000
            5     46      24.04        31.000         0.048   1000.000   0.020      750.000  0.050    0.000     0.000
            6     47       3.54        31.000         0.048   1000.000   0.020      750.000  0.050    0.000     0.000
            6     48      20.65        31.000         0.048   1000.000   0.020      750.000  0.050    0.000     0.000
            6     49      15.69        31.000         0.048   1000.000   0.020      750.000  0.050    0.000     0.000
            6     50      19.79        31.000         0.048   1000.000   0.020      750.000  0.050    0.000     0.000
            6     51      21.12        31.000         0.048   1000.000   0.020      750.000  0.050    0.000     0.000
            6     52      15.18        31.000         0.048   1000.000   0.020      750.000  0.050    0.000     0.000
            6     53      10.39        31.000         0.048   1000.000   0.020      750.000  0.050    0.000     0.000
            6     54       5.70        31.000         0.048   1000.000   0.020      750.000  0.050    0.000     0.000
            6     55       5.60        31.000         0.048   1000.000   0.020      750.000  0.050    0.000     0.000
            6     56       1.36        31.000         0.048   1000.000   0.020      750.000  0.050    0.000     0.000
            6     57       1.46        31.000         0.048   1000.000   0.020      750.000  0.050    0.000     0.000
            6     58       3.31        31.000         0.048   1000.000   0.020      750.000  0.050    0.000     0.000
            6     59       3.53        31.000         0.048   1000.000   0.020      750.000  0.050    0.000     0.000
            6     60       4.33        31.000         0.048   1000.000   0.020      750.000  0.050    0.000     0.000
            6     61       1.15        31.000         0.048   1000.000   0.020      750.000  0.050    0.000     0.000
            7     62      10.17        31.000         0.048   1000.000   0.020      750.000  0.050    0.000     0.000
            7     63       2.03        31.000         0.048   1000.000   0.020      750.000  0.050    0.000     0.000
            7     64       7.93        31.000         0.048   1000.000   0.020      750.000  0.050    0.000     0.000
            7     65       9.13        31.000         0.048   1000.000   0.020      750.000  0.050    0.000     0.000
            7     66       9.82        31.000         0.048   1000.000   0.020      750.000  0.050    0.000     0.000
            7     67       4.64        31.000         0.048   1000.000   0.020      750.000  0.050    0.000     0.000
            7     68       3.08        31.000         0.048   1000.000   0.020      750.000  0.050    0.000     0.000
            7     69       4.57        31.000         0.048   1000.000   0.020      750.000  0.050    0.000     0.000
            7     70      11.04        31.000         0.048   1000.000   0.020      750.000  0.050    0.000     0.000
            7     71      29.85        31.000         0.048   1000.000   0.020      750.000  0.050    0.000     0.000
            7     72       8.64        31.000         0.048   1000.000   0.020      750.000  0.050    0.000     0.000
            7     73       5.29        31.000         0.048   1000.000   0.020      750.000  0.050    0.000     0.000
            8     74      13.34        31.000         0.048   1000.000   0.020      750.000  0.050    0.000     0.000
            8     75      11.05        31.000         0.048   1000.000   0.020      750.000  0.050    0.000     0.000
            8     76       1.72        31.000         0.048   1000.000   0.020      750.000  0.050    0.000     0.000
            8     77       7.70        31.000         0.048   1000.000   0.020      750.000  0.050    0.000     0.000
            8     78      21.44        31.000         0.048   1000.000   0.020      750.000  0.050    0.000     0.000
            8     79       5.36        31.000         0.048   1000.000   0.020      750.000  0.050    0.000     0.000
            8     80       4.35        31.000         0.048   1000.000   0.020      750.000  0.050    0.000     0.000
            8     81       6.86        31.000         0.048   1000.000   0.020      750.000  0.050    0.000     0.000
            8     82       4.16        31.000         0.048   1000.000   0.020      750.000  0.050    0.000     0.000
            8     83      12.69        31.000         0.048   1000.000   0.020      750.000  0.050    0.000     0.000
            8     84       4.55        31.000         0.048   1000.000   0.020      750.000  0.050    0.000     0.000
            8     85       1.52        31.000         0.048   1000.000   0.020      750.000  0.050    0.000     0.000
            9     86       2.11        31.000         0.048   1000.000   0.020      750.000  0.050    0.000     0.000
            9     87       5.66        31.000         0.048   1000.000   0.020      750.000  0.050    0.000     0.000
            9     88       0.62        31.000         0.048   1000.000   0.020      750.000  0.050    0.000     0.000
            9     89       0.60        31.000         0.048   1000.000   0.020      750.000  0.050    0.000     0.000
            9     90       0.23        31.000         0.048   1000.000   0.020      750.000  0.050    0.000     0.000
            9     91       1.77        31.000         0.048   1000.000   0.020      750.000  0.050    0.000     0.000
            9     92       0.08        31.000         0.048   1000.000   0.020      750.000  0.050    0.000     0.000
            9     93       0.24        31.000         0.048   1000.000   0.020      750.000  0.050    0.000     0.000
            9     94       2.76        31.000         0.048   1000.000   0.020      750.000  0.050    0.000     0.000
            9     95      16.63        31.000         0.048   1000.000   0.020      750.000  0.050    0.000     0.000
            9     96      14.29        31.000         0.048   1000.000   0.020      750.000  0.050    0.000     0.000
            9     97       3.85        31.000         0.048   1000.000   0.020      750.000  0.050    0.000     0.000
            9     98       7.16        31.000         0.048   1000.000   0.020      750.000  0.050    0.000     0.000
            9     99       8.09        31.000         0.048   1000.000   0.020      750.000  0.050    0.000     0.000
            9    100       1.59        31.000         0.048   1000.000   0.020      750.000  0.050    0.000     0.000
            9    101       0.96        31.000         0.048   1000.000   0.020      750.000  0.050    0.000     0.000
            9    102       1.43        31.000         0.048   1000.000   0.020      750.000  0.050    0.000     0.000
            9    103       1.04        31.000         0.048   1000.000   0.020      750.000  0.050    0.000     0.000
            9    104       0.37        31.000         0.048   1000.000   0.020      750.000  0.050    0.000     0.000
            9    105       3.50        31.000         0.048   1000.000   0.020      750.000  0.050    0.000     0.000
            9    106       3.36        31.000         0.048   1000.000   0.020      750.000  0.050    0.000     0.000
            9    107       1.00        31.000         0.048   1000.000   0.020      750.000  0.050    0.000     0.000
            9    108       0.84        31.000         0.048   1000.000   0.020      750.000  0.050    0.000     0.000
            9    109       1.43        31.000         0.048   1000.000   0.020      750.000  0.050    0.000     0.000
            9    110       4.57        31.000         0.048   1000.000   0.020      750.000  0.050    0.000     0.000
            9    111       1.74        31.000         0.048   1000.000   0.020      750.000  0.050    0.000     0.000
            9    112       0.84        31.000         0.048   1000.000   0.020      750.000  0.050    0.000     0.000
           10    113       7.09        31.000         0.048   1000.000   0.020      750.000  0.050    0.000     0.000
           10    114       3.39        31.000         0.048   1000.000   0.020      750.000  0.050    0.000     0.000
           10    115      12.77        31.000         0.048   1000.000   0.020      750.000  0.050    0.000     0.000
           10    116      12.47        31.000         0.048   1000.000   0.020      750.000  0.050    0.000     0.000
           10    117       4.10        31.000         0.048   1000.000   0.020      750.000  0.050    0.000     0.000
           10    118      12.79        31.000         0.048   1000.000   0.020      750.000  0.050    0.000     0.000
           10    119       2.35        31.000         0.048   1000.000   0.020      750.000  0.050    0.000     0.000
           10    120       3.57        31.000         0.048   1000.000   0.020      750.000  0.050    0.000     0.000
           10    121       2.81        31.000         0.048   1000.000   0.020      750.000  0.050    0.000     0.000
           10    122       0.86        31.000         0.048   1000.000   0.020      750.000  0.050    0.000     0.000
           10    123       1.28        31.000         0.048   1000.000   0.020      750.000  0.050    0.000     0.000
           10    124       0.31        31.000         0.048   1000.000   0.020      750.000  0.050    0.000     0.000
           11    125      18.10        31.000         0.048   1000.000   0.020      750.000  0.050    0.000     0.000
           11    126      27.44        31.000         0.048   1000.000   0.020      750.000  0.050    0.000     0.000
           11    127      28.09        31.000         0.048   1000.000   0.020      750.000  0.050    0.000     0.000
           11    128       7.84        31.000         0.048   1000.000   0.020      750.000  0.050    0.000     0.000
           11    129       5.49        31.000         0.048   1000.000   0.020      750.000  0.050    0.000     0.000
           11    130       0.99        31.000         0.048   1000.000   0.020      750.000  0.050    0.000     0.000
           11    131       1.16        31.000         0.048   1000.000   0.020      750.000  0.050    0.000     0.000
           11    132       2.49        31.000         0.048   1000.000   0.020      750.000  0.050    0.000     0.000
           11    133       1.22        31.000         0.048   1000.000   0.020      750.000  0.050    0.000     0.000
           11    134       4.52        31.000         0.048   1000.000   0.020      750.000  0.050    0.000     0.000
           11    135       3.55        31.000         0.048   1000.000   0.020      750.000  0.050    0.000     0.000
           11    136       3.11        31.000         0.048   1000.000   0.020      750.000  0.050    0.000     0.000
           11    137       1.01        31.000         0.048   1000.000   0.020      750.000  0.050    0.000     0.000
           11    138       1.57        31.000         0.048   1000.000   0.020      750.000  0.050    0.000     0.000
           11    139       1.39        31.000         0.048   1000.000   0.020      750.000  0.050    0.000     0.000
           11    140       4.07        31.000         0.048   1000.000   0.020      750.000  0.050    0.000     0.000
           11    141       0.75        31.000         0.048   1000.000   0.020      750.000  0.050    0.000     0.000
           11    142       0.47        31.000         0.048   1000.000   0.020      750.000  0.050    0.000     0.000
           11    143       0.36        31.000         0.048   1000.000   0.020      750.000  0.050    0.000     0.000
           11    144       3.74        31.000         0.048   1000.000   0.020      750.000  0.050    0.000     0.000
           11    145       1.98        31.000         0.048   1000.000   0.020      750.000  0.050    0.000     0.000
           11    146       0.47        31.000         0.048   1000.000   0.020      750.000  0.050    0.000     0.000
           11    147       2.25        31.000         0.048   1000.000   0.020      750.000  0.050    0.000     0.000
           11    148       0.06        31.000         0.048   1000.000   0.020      750.000  0.050    0.000     0.000
           11    149       0.25        31.000         0.048   1000.000   0.020      750.000  0.050    0.000     0.000
           11    150       0.35        31.000         0.048   1000.000   0.020      750.000  0.050    0.000     0.000
           11    151       0.64        31.000         0.048   1000.000   0.020      750.000  0.050    0.000     0.000
           11    152       1.45        31.000         0.048   1000.000   0.020      750.000  0.050    0.000     0.000
           11    153       5.69        31.000         0.048   1000.000   0.020      750.000  0.050    0.000     0.000
           11    154       3.78        31.000         0.048   1000.000   0.020      750.000  0.050    0.000     0.000
           11    155       1.02        31.000         0.048   1000.000   0.020      750.000  0.050    0.000     0.000
           11    156       1.33        31.000         0.048   1000.000   0.020      750.000  0.050    0.000     0.000
           11    157       0.30        31.000         0.048   1000.000   0.020      750.000  0.050    0.000     0.000
           11    158       0.11        31.000         0.048   1000.000   0.020      750.000  0.050    0.000     0.000
           11    159       1.12        31.000         0.048   1000.000   0.020      750.000  0.050    0.000     0.000

         Tributary/Main Channel Characteristics
              |--------------Tributary--------------------|---------------------Main-------------------------------------|
          Sub  Length(km) Slope Width(m) Cond(mm/hr)     N Length(km) Slope Width(m) Depth(m) Cond(mm/hr)     N      MSK_K
              1        0.70 0.106     0.32      0.0000 0.014       0.17 0.000     4.74     0.31      0.0000 0.014     0.49
              2        1.46 0.101     0.63      0.0000 0.014       1.01 0.055     3.71     0.26      0.0000 0.014     0.14
              3        1.70 0.134     0.85      0.0000 0.014       1.33 0.121     3.34     0.24      0.0000 0.014     0.13
              4        2.25 0.254     1.13      0.0000 0.014       1.38 0.177     2.49     0.20      0.0000 0.014     0.13
              5        2.07 0.123     1.14      0.0000 0.014       1.76 0.069     2.41     0.20      0.0000 0.014     0.27
              6        2.52 0.296     1.53      0.0000 0.014       0.99 0.311     1.53     0.15      0.0000 0.014     0.09
              7        3.08 0.254     1.34      0.0000 0.014       0.65 0.087     1.34     0.13      0.0000 0.014     0.12
              8        3.47 0.276     1.25      0.0000 0.014       0.81 0.126     1.25     0.13      0.0000 0.014     0.13
              9        2.44 0.311     1.19      0.0000 0.014       0.78 0.405     1.19     0.12      0.0000 0.014     0.07
             10        3.01 0.206     0.98      0.0000 0.014       0.89 0.111     0.98     0.11      0.0000 0.014     0.16
             11        3.43 0.284     1.57      0.0000 0.014       1.80 0.250     1.57     0.15      0.0000 0.014     0.18
