1
    SWAT Sep 7    VER 2018/Rev 670                                                                       0/ 0/   0      0: 0: 0

    General Input/Output section (file.cio):                                        
    10/24/2022 12:00:00 AM ARCGIS-SWAT interface AV                                 
                                                                                    
         Number of years in run:    4
         Area of watershed:        8.744 km2
1
    SWAT Sep 7    VER 2018/Rev 670                                                  

    General Input/Output section (file.cio):                                        
    10/24/2022 12:00:00 AM ARCGIS-SWAT interface AV                                 
                                                                                    
Annual Summary for Watershed in year    1 of simulation

UNIT                                    PERCO    TILE                           WATER     SED     NO3     NO3     NO3     NO3        N       P       P
TIME     PREC    SURQ    LATQ     GWQ    LATE       Q     SW       ET     PET   YIELD   YIELD    SURQ    LATQ    PERC    CROP  ORGANIC SOLUBLE ORGANIC TILENO3
         (mm)    (mm)    (mm)    (mm)    (mm)    (mm)    (mm)    (mm)    (mm)    (mm)   (t/ha)  ------------------(kg nutrient/ha)-------------------- (kg/ha)
1
    SWAT Sep 7    VER 2018/Rev 670                                                  

    General Input/Output section (file.cio):                                        
    10/24/2022 12:00:00 AM ARCGIS-SWAT interface AV                                 
                                                                                    
Annual Summary for Watershed in year    2 of simulation

UNIT                                    PERCO    TILE                           WATER     SED     NO3     NO3     NO3     NO3        N       P       P
TIME     PREC    SURQ    LATQ     GWQ    LATE       Q     SW       ET     PET   YIELD   YIELD    SURQ    LATQ    PERC    CROP  ORGANIC SOLUBLE ORGANIC TILENO3
         (mm)    (mm)    (mm)    (mm)    (mm)    (mm)    (mm)    (mm)    (mm)    (mm)   (t/ha)  ------------------(kg nutrient/ha)-------------------- (kg/ha)
    1   11.76    7.22    1.31    0.20    0.85    0.00   77.75    1.71    3.16    8.74    0.00    0.00    0.03    0.12    0.00     0.00    0.00    0.00    0.00
    2    7.54    2.38    1.39    0.20    0.74    0.00   79.29    1.13    1.77    4.00    0.00    0.00    0.02    0.08    0.00     0.00    0.00    0.00    0.00
    3    3.82    1.31    0.95    0.20    0.40    0.00   79.52    1.08    1.93    2.48    0.00    0.00    0.02    0.04    0.00     0.00    0.00    0.00    0.00
    4    8.72    1.68    1.93    0.21    1.15    0.00   80.98    1.82    2.78    3.84    0.00    0.00    0.04    0.15    0.00     0.00    0.00    0.00    0.00
    5    8.67    3.37    1.62    0.21    0.73    0.00   82.38    1.52    2.22    5.22    0.31    0.02    0.03    0.08    0.00     1.09    0.00    0.15    0.00
    6    0.00    0.00    0.70    0.21    0.09    0.00   81.45    0.83    4.04    0.93    0.00    0.00    0.01    0.01    0.00     0.01    0.00    0.00    0.00
    7    0.00    0.00    0.40    0.21    0.02    0.00   80.89    0.53    4.18    0.63    0.00    0.00    0.00    0.00    0.00     0.00    0.00    0.00    0.00
    8    2.56    0.38    0.50    0.22    0.08    0.00   80.99    1.60    3.28    1.11    0.00    0.02    0.01    0.01    0.00     0.00    0.00    0.00    0.00
    9   14.61    3.35    2.71    0.22    1.96    0.00   83.95    1.90    3.04    6.30    0.00    0.00    0.06    0.25    0.00     0.00    0.00    0.00    0.00
   10   10.83    5.90    1.98    0.23    0.70    0.00   84.22    2.31    3.65    8.12    0.00    0.00    0.04    0.09    0.00     0.00    0.00    0.00    0.00
   11    0.20    0.00    0.81    0.23    0.07    0.00   83.61    0.72    4.02    1.06    0.00    0.00    0.01    0.01    0.00     0.00    0.00    0.00    0.00
   12    0.92    0.10    0.45    0.23    0.02    0.00   83.70    0.66    2.50    0.81    0.00    0.02    0.00    0.00    0.00     0.00    0.00    0.00    0.00
   13    0.48    0.06    0.30    0.24    0.00    0.00   83.67    0.43    3.27    0.61    0.00    0.02    0.00    0.00    0.00     0.00    0.00    0.00    0.00
   14    0.06    0.00    0.21    0.24    0.00    0.00   83.56    0.17    4.07    0.47    0.00    0.00    0.00    0.00    0.00     0.00    0.00    0.00    0.00
   15    1.51    0.16    0.28    0.24    0.01    0.00   83.78    0.89    3.83    0.69    0.00    0.05    0.01    0.00    0.00     0.00    0.00    0.00    0.00
   16    0.74    0.11    0.18    0.24    0.00    0.00   84.06    0.32    4.09    0.54    0.00    0.04    0.00    0.00    0.00     0.00    0.00    0.00    0.00
   17    8.82    3.26    1.27    0.24    0.76    0.00   84.85    2.04    3.19    4.78    0.00    0.00    0.04    0.11    0.00     0.00    0.00    0.00    0.00
   18    0.54    0.17    0.45    0.24    0.03    0.00   84.69    0.48    3.08    0.87    0.00    0.01    0.01    0.00    0.00     0.00    0.00    0.00    0.00
   19    2.93    0.59    0.45    0.24    0.09    0.00   85.08    1.40    3.24    1.30    0.00    0.04    0.01    0.01    0.00     0.00    0.00    0.00    0.00
   20    0.00    0.00    0.21    0.24    0.01    0.00   84.96    0.11    4.48    0.47    0.00    0.00    0.00    0.00    0.00     0.00    0.00    0.00    0.00
   21    0.31    0.00    0.13    0.24    0.00    0.00   85.06    0.20    2.93    0.39    0.00    0.00    0.00    0.00    0.00     0.00    0.00    0.00    0.00
   22    0.00    0.00    0.09    0.24    0.00    0.00   85.06    0.00    5.13    0.34    0.00    0.00    0.00    0.00    0.00     0.00    0.00    0.00    0.00
   23    0.00    0.00    0.06    0.24    0.00    0.00   85.06    0.00    5.19    0.32    0.00    0.00    0.00    0.00    0.00     0.00    0.00    0.00    0.00
   24    0.38    0.02    0.05    0.23    0.00    0.00   85.18    0.23    3.88    0.32    0.00    0.01    0.00    0.00    0.00     0.00    0.00    0.00    0.00
   25    0.00    0.00    0.04    0.22    0.00    0.00   85.17    0.01    5.34    0.28    0.00    0.00    0.00    0.00    0.00     0.00    0.00    0.00    0.00
   26    0.16    0.00    0.03    0.21    0.00    0.00   85.13    0.20    4.11    0.26    0.00    0.00    0.00    0.00    0.00     0.00    0.00    0.00    0.00
   27    0.00    0.00    0.02    0.20    0.00    0.00   85.13    0.00    5.22    0.24    0.00    0.00    0.00    0.00    0.00     0.00    0.00    0.00    0.00
   28    2.51    1.62    0.05    0.19    0.00    0.00   85.21    0.75    3.18    1.88    0.00    0.08    0.00    0.00    0.00     0.00    0.00    0.00    0.00
   29    0.00    0.00    0.02    0.19    0.00    0.00   85.13    0.08    4.29    0.23    0.00    0.00    0.00    0.00    0.00     0.00    0.00    0.00    0.00
   30    0.33    0.00    0.02    0.18    0.00    0.00   85.13    0.31    3.29    0.22    0.00    0.00    0.00    0.00    0.00     0.00    0.00    0.00    0.00
   31    0.00    0.00    0.01    0.18    0.00    0.00   85.13    0.00    3.59    0.20    0.00    0.00    0.00    0.00    0.00     0.00    0.00    0.00    0.00
    1   88.39   31.68   18.63    6.82    7.74    0.00   85.13   23.43  111.97   57.64    0.31    0.32    0.35    0.95    0.00     1.11    0.00    0.16    0.00
   32    0.00    0.00    0.01    0.16    0.00    0.00   85.13    0.00    3.93    0.19    0.00    0.00    0.00    0.00    0.00     0.00    0.00    0.00    0.00
   33    8.27    3.77    1.16    0.17    0.75    0.00   85.61    1.36    3.01    5.11    0.08    0.00    0.05    0.13    0.00     0.76    0.00    0.09    0.00
   34    2.36    0.47    0.58    0.17    0.06    0.00   85.97    1.14    3.23    1.24    0.00    0.16    0.02    0.01    0.00     0.00    0.00    0.00    0.00
   35    0.05    0.00    0.21    0.16    0.00    0.00   85.88    0.13    4.70    0.38    0.00    0.01    0.01    0.00    0.00     0.00    0.00    0.00    0.00
   36    0.00    0.00    0.10    0.15    0.00    0.00   85.86    0.02    5.00    0.27    0.00    0.00    0.00    0.00    0.00     0.00    0.00    0.00    0.00
   37    0.00    0.00    0.06    0.15    0.00    0.00   85.86    0.00    3.91    0.23    0.00    0.00    0.00    0.00    0.00     0.00    0.00    0.00    0.00
   38    0.00    0.00    0.04    0.15    0.00    0.00   85.86    0.00    3.62    0.21    0.00    0.00    0.00    0.00    0.00     0.00    0.00    0.00    0.00
   39    0.00    0.00    0.03    0.15    0.00    0.00   85.86    0.00    3.52    0.19    0.00    0.00    0.00    0.00    0.00     0.00    0.00    0.00    0.00
   40    0.00    0.00    0.02    0.13    0.00    0.00   85.86    0.00    5.05    0.17    0.00    0.00    0.00    0.00    0.00     0.00    0.00    0.00    0.00
   41    0.00    0.00    0.02    0.13    0.00    0.00   85.86    0.00    3.03    0.16    0.00    0.00    0.00    0.00    0.00     0.00    0.00    0.00    0.00
   42    0.27    0.07    0.02    0.12    0.00    0.00   85.93    0.12    3.08    0.23    0.00    0.04    0.00    0.00    0.00     0.00    0.00    0.00    0.00
   43    3.36    0.53    0.40    0.12    0.21    0.00   86.74    1.12    1.82    1.07    0.00    0.20    0.03    0.03    0.00     0.00    0.00    0.00    0.00
   44    6.88    2.26    1.03    0.12    0.75    0.00   87.29    1.66    2.44    3.42    0.00    0.01    0.04    0.10    0.00     0.00    0.00    0.00    0.00
   45    1.30    0.15    0.44    0.13    0.06    0.00   87.14    1.11    2.83    0.74    0.00    0.08    0.01    0.01    0.00     0.00    0.00    0.00    0.00
   46    2.64    0.50    0.42    0.13    0.13    0.00   87.24    1.51    3.06    1.06    0.00    0.15    0.01    0.01    0.00     0.00    0.00    0.00    0.00
   47    0.98    0.20    0.25    0.13    0.01    0.00   87.13    0.81    3.64    0.59    0.00    0.08    0.01    0.00    0.00     0.00    0.00    0.00    0.00
   48    0.00    0.00    0.14    0.13    0.00    0.00   87.06    0.08    3.76    0.28    0.00    0.00    0.00    0.00    0.00     0.00    0.00    0.00    0.00
   49    0.00    0.00    0.09    0.12    0.00    0.00   87.06    0.00    4.54    0.23    0.00    0.00    0.00    0.00    0.00     0.00    0.00    0.00    0.00
   50    0.00    0.00    0.06    0.11    0.00    0.00   87.06    0.00    4.97    0.19    0.00    0.00    0.00    0.00    0.00     0.00    0.00    0.00    0.00
   51    0.32    0.07    0.05    0.10    0.00    0.00   87.13    0.19    4.49    0.23    0.00    0.03    0.00    0.00    0.00     0.00    0.00    0.00    0.00
   52    0.00    0.00    0.04    0.10    0.00    0.00   87.10    0.02    4.79    0.15    0.00    0.00    0.00    0.00    0.00     0.00    0.00    0.00    0.00
   53    0.18    0.00    0.03    0.09    0.00    0.00   87.16    0.12    3.81    0.13    0.00    0.00    0.00    0.00    0.00     0.00    0.00    0.00    0.00
   54    6.12    1.86    0.90    0.09    0.49    0.00   87.87    1.62    2.50    2.87    0.00    0.00    0.04    0.09    0.00     0.00    0.00    0.00    0.00
   55    4.30    0.90    0.77    0.10    0.31    0.00   88.59    1.48    2.09    1.78    0.00    0.00    0.02    0.04    0.00     0.00    0.00    0.00    0.00
   56    3.18    0.79    0.56    0.10    0.15    0.00   88.38    1.99    3.60    1.46    0.00    0.06    0.02    0.02    0.00     0.00    0.00    0.00    0.00
   57    0.00    0.00    0.23    0.10    0.01    0.00   88.05    0.33    3.92    0.34    0.00    0.00    0.01    0.00    0.00     0.00    0.00    0.00    0.00
   58    0.34    0.00    0.13    0.10    0.00    0.00   88.13    0.24    2.72    0.24    0.00    0.00    0.00    0.00    0.00     0.00    0.00    0.00    0.00
   59    0.10    0.00    0.08    0.10    0.00    0.00   88.20    0.03    3.61    0.19    0.00    0.00    0.00    0.00    0.00     0.00    0.00    0.00    0.00
    2   40.65   11.55    7.85    3.50    2.93    0.00   88.20   15.06  100.66   23.32    0.08    0.85    0.27    0.43    0.00     0.77    0.00    0.10    0.00
   60    0.42    0.00    0.07    0.10    0.00    0.00   88.34    0.25    3.32    0.18    0.00    0.00    0.00    0.00    0.00     0.00    0.00    0.00    0.00
   61    0.00    0.00    0.05    0.09    0.00    0.00   88.34    0.00    5.01    0.15    0.00    0.00    0.00    0.00    0.00     0.00    0.00    0.00    0.00
   62    1.73    0.37    0.14    0.09    0.01    0.00   88.58    0.92    2.05    0.62    0.00    0.13    0.01    0.00    0.03     0.00    0.00    0.00    0.00
   63    1.44    0.16    0.17    0.09    0.02    0.00   88.24    1.41    3.08    0.44    0.00    0.07    0.01    0.00    0.12     0.00    0.00    0.00    0.00
   64    0.94    0.36    0.09    0.09    0.00    0.00   88.14    0.64    3.14    0.55    0.00    0.02    0.00    0.00    0.10     0.00    0.00    0.00    0.00
   65    2.16    0.42    0.23    0.09    0.01    0.00   88.46    1.10    2.47    0.76    0.00    0.10    0.01    0.00    0.11     0.00    0.00    0.00    0.00
   66    0.06    0.00    0.08    0.08    0.00    0.00   88.03    0.50    3.54    0.18    0.00    0.01    0.00    0.00    0.10     0.00    0.00    0.00    0.00
   67    0.00    0.00    0.04    0.08    0.00    0.00   87.57    0.46    3.85    0.13    0.00    0.00    0.00    0.00    0.45     0.00    0.00    0.00    0.00
   68    0.33    0.00    0.03    0.07    0.00    0.00   87.07    0.82    3.53    0.12    0.00    0.00    0.00    0.00    0.39     0.00    0.00    0.00    0.00
   69    0.00    0.00    0.02    0.05    0.00    0.00   86.40    0.67    4.72    0.09    0.00    0.00    0.00    0.00    0.69     0.00    0.00    0.00    0.00
   70    0.00    0.00    0.01    0.05    0.00    0.00   85.64    0.75    4.62    0.08    0.00    0.00    0.00    0.00    1.04     0.00    0.00    0.00    0.00
   71    0.00    0.00    0.01    0.04    0.00    0.00   84.60    1.05    5.48    0.06    0.00    0.00    0.00    0.00    1.11     0.00    0.00    0.00    0.00
   72    0.49    0.09    0.01    0.04    0.00    0.00   84.24    0.75    2.71    0.15    0.00    0.00    0.00    0.00    0.69     0.00    0.00    0.00    0.00
   73    0.37    0.00    0.01    0.04    0.00    0.00   83.32    1.29    3.78    0.07    0.00    0.00    0.00    0.00    0.75     0.00    0.00    0.00    0.00
   74    2.76    0.45    0.26    0.04    0.02    0.00   82.74    2.43    4.59    0.77    0.00    0.65    0.01    0.00    0.78     0.00    0.00    0.00    0.00
   75    0.00    0.00    0.08    0.04    0.00    0.00   80.82    1.92    5.53    0.14    0.00    0.01    0.00    0.00    1.23     0.00    0.00    0.00    0.00
   76    0.51    0.09    0.04    0.04    0.00    0.00   79.52    1.72    4.47    0.18    0.00    0.45    0.00    0.00    1.52     0.00    0.00    0.00    0.00
   77    1.61    0.15    0.12    0.03    0.00    0.00   78.39    2.39    5.20    0.31    0.00    0.58    0.00    0.00    2.22     0.00    0.00    0.00    0.00
   78    5.53    0.74    0.73    0.03    0.03    0.00   79.41    2.66    4.11    1.51    0.00    0.40    0.01    0.01    0.51     0.06    0.00    0.03    0.00
   79    2.90    0.84    0.43    0.03    0.01    0.00   78.84    2.30    4.13    1.31    0.00    0.08    0.01    0.00    1.13     0.00    0.00    0.00    0.00
   80    0.00    0.00    0.15    0.02    0.00    0.00   76.79    2.05    5.65    0.19    0.00    0.01    0.00    0.00    2.43     0.00    0.00    0.00    0.00
   81    1.74    0.75    0.16    0.03    0.01    0.00   75.85    1.80    3.98    0.95    0.00    0.01    0.00    0.00    1.38     0.00    0.00    0.00    0.00
   82   23.85   11.48    2.42    0.03    0.33    0.00   82.03    2.02    4.13   13.93    0.00    0.00    0.04    0.05    1.53     0.09    0.00    0.02    0.00
   83    2.44    0.49    0.96    0.03    0.04    0.00   81.63    1.96    3.67    1.50    0.00    0.03    0.01    0.01    1.22     0.00    0.00    0.00    0.00
   84    6.91    1.97    1.10    0.03    0.12    0.00   82.54    2.71    3.86    3.11    0.00    0.01    0.02    0.02    1.71     0.00    0.00    0.00    0.00
   85    4.11    0.83    0.76    0.02    0.04    0.00   81.40    3.82    5.51    1.62    0.00    0.02    0.01    0.01    1.96     0.00    0.00    0.00    0.00
   86    9.19    3.51    1.31    0.02    0.05    0.00   83.63    1.87    2.78    4.85    0.00    0.01    0.01    0.01    2.16     0.21    0.00    0.08    0.00
   87    0.19    0.00    0.46    0.02    0.01    0.00   82.54    1.27    3.17    0.49    0.00    0.00    0.00    0.00    1.46     0.00    0.00    0.00    0.00
   88    2.85    0.64    0.45    0.02    0.01    0.00   82.77    1.61    2.35    1.12    0.00    0.01    0.00    0.00    0.87     0.00    0.00    0.00    0.00
   89    3.94    1.16    0.60    0.03    0.08    0.00   82.43    2.43    3.42    1.80    0.00    0.00    0.01    0.01    0.41     0.00    0.00    0.00    0.00
   90   10.02    4.38    1.19    0.03    0.28    0.00   85.10    1.08    1.48    5.61    0.00    0.00    0.01    0.04    1.14     0.00    0.00    0.00    0.00
    3   86.49   28.88   12.18    1.50    1.07    0.00   85.10   46.65  119.34   42.95    0.00    2.61    0.18    0.18   29.24     0.37    0.01    0.13    0.00
   91   23.18   10.14    2.90    0.03    1.20    0.00   90.02    2.59    2.98   13.09    0.01    0.00    0.05    0.17    0.22     0.09    0.00    0.02    0.00
   92    9.08    1.90    2.32    0.04    0.89    0.00   90.71    3.32    3.79    4.27    0.00    0.00    0.04    0.11    1.13     0.00    0.00    0.00    0.00
   93    0.62    0.08    0.90    0.04    0.11    0.00   88.76    2.35    3.95    1.03    0.00    0.00    0.01    0.00    1.46     0.00    0.00    0.00    0.00
   94    6.64    1.29    1.13    0.04    0.22    0.00   89.76    2.93    3.92    2.47    0.00    0.00    0.01    0.01    1.26     0.01    0.00    0.00    0.00
   95   15.15    5.82    2.51    0.05    1.54    0.00   91.45    2.45    3.77    8.38    0.00    0.00    0.03    0.16    1.22     0.00    0.00    0.00    0.00
   96    6.80    1.21    2.01    0.05    0.63    0.00   91.31    3.43    4.37    3.29    0.00    0.29    0.02    0.07    1.27     0.00    0.00    0.00    0.00
   97    8.70    2.18    2.17    0.06    0.82    0.00   91.50    3.42    4.43    4.42    0.00    0.05    0.03    0.13    2.05     0.12    0.00    0.06    0.00
   98    1.89    0.06    1.04    0.06    0.06    0.00   90.37    2.55    4.63    1.18    0.00    0.03    0.01    0.00    2.26     0.00    0.00    0.00    0.00
   99    3.74    1.13    0.79    0.07    0.02    0.00   89.91    2.56    4.21    2.01    0.00    0.00    0.00    0.00    1.92     0.00    0.00    0.00    0.00
  100    7.17    2.72    1.08    0.07    0.17    0.00   90.04    2.97    5.20    3.89    0.00    0.00    0.01    0.02    1.15     0.00    0.00    0.00    0.00
  101    2.24    0.65    0.59    0.08    0.01    0.00   89.09    2.32    4.39    1.32    0.00    0.00    0.00    0.00    0.89     0.00    0.00    0.00    0.00
  102   13.44    3.16    2.03    0.08    0.83    0.00   90.91    4.69    5.32    5.29    0.00    0.00    0.01    0.07    1.28     0.00    0.00    0.00    0.00
  103    1.36    0.32    0.84    0.08    0.06    0.00   88.95    2.80    5.26    1.26    0.00    0.00    0.00    0.00    0.77     0.00    0.00    0.00    0.00
  104    0.47    0.06    0.40    0.09    0.02    0.00   87.80    1.52    3.26    0.56    0.00    0.00    0.00    0.00    0.45     0.00    0.00    0.00    0.00
  105    0.98    0.19    0.26    0.09    0.00    0.00   86.84    1.72    3.26    0.55    0.00    0.00    0.00    0.00    0.23     0.00    0.00    0.00    0.00
  106    2.15    0.38    0.32    0.09    0.00    0.00   86.08    2.26    3.76    0.80    0.00    0.00    0.00    0.00    0.23     0.00    0.00    0.00    0.00
  107    2.38    0.43    0.35    0.10    0.00    0.00   85.26    2.48    4.22    0.88    0.00    0.00    0.00    0.00    0.24     0.00    0.00    0.00    0.00
  108    0.00    0.00    0.16    0.10    0.00    0.00   82.81    2.45    6.14    0.27    0.00    0.00    0.00    0.00    0.21     0.00    0.00    0.00    0.00
  109    0.56    0.05    0.11    0.10    0.00    0.00   81.22    2.08    4.78    0.27    0.00    0.00    0.00    0.00    0.22     0.00    0.00    0.00    0.00
  110    0.37    0.07    0.07    0.10    0.00    0.00   79.21    2.31    5.07    0.25    0.00    0.00    0.00    0.00    0.21     0.00    0.00    0.00    0.00
  111    0.13    0.00    0.05    0.10    0.00    0.00   77.38    1.96    4.67    0.16    0.00    0.00    0.00    0.00    0.21     0.00    0.00    0.00    0.00
  112    7.70    3.35    0.62    0.10    0.00    0.00   78.06    2.70    4.79    4.08    0.00    0.00    0.00    0.00    0.22     0.00    0.00    0.00    0.00
  113    2.95    0.52    0.43    0.10    0.00    0.00   77.41    2.73    4.35    1.06    0.00    0.00    0.00    0.00    0.21     0.00    0.00    0.00    0.00
  114    2.29    0.60    0.32    0.10    0.00    0.00   76.65    2.18    3.75    1.03    0.00    0.00    0.00    0.00    0.22     0.00    0.00    0.00    0.00
  115    7.71    3.29    0.80    0.10    0.03    0.00   78.15    1.78    3.32    4.20    0.00    0.00    0.00    0.00    0.20     0.00    0.00    0.00    0.00
  116    9.64    3.82    1.15    0.10    0.10    0.00   80.63    1.78    2.71    5.09    0.00    0.00    0.00    0.02    0.20     0.00    0.00    0.00    0.00
  117   12.24    3.48    1.66    0.10    0.36    0.00   83.82    2.99    4.04    5.26    0.00    0.00    0.01    0.03    0.22     0.00    0.00    0.00    0.00
  118   16.75    5.69    2.48    0.11    0.72    0.00   87.78    3.17    4.14    8.28    0.00    0.00    0.01    0.05    0.22     0.00    0.00    0.00    0.00
  119   12.66    2.27    2.57    0.11    1.01    0.00   90.70    3.55    3.88    4.96    0.00    0.00    0.01    0.06    0.25     0.00    0.00    0.00    0.00
  120    0.04    0.00    0.98    0.11    0.13    0.00   87.45    3.15    5.89    1.10    0.00    0.00    0.00    0.00    0.23     0.00    0.00    0.00    0.00
    4  179.02   54.86   33.04    2.45    8.94    0.00   87.45   79.19  128.23   90.68    0.01    0.41    0.26    0.91   20.87     0.22    0.00    0.08    0.00
  121    8.09    4.82    0.94    0.11    0.05    0.00   87.26    2.70    4.65    5.87    0.00    0.00    0.00    0.00    0.23     0.00    0.00    0.00    0.00
  122    8.68    2.53    1.30    0.11    0.18    0.00   88.46    3.32    4.69    3.97    0.00    0.00    0.00    0.02    0.28     0.00    0.00    0.00    0.00
  123   12.42    5.27    1.91    0.12    0.70    0.00   90.04    2.55    4.10    7.29    0.00    0.00    0.01    0.09    0.27     0.00    0.00    0.00    0.00
  124    7.66    1.52    1.73    0.12    0.42    0.00   89.99    4.20    4.84    3.38    0.00    0.00    0.01    0.04    0.26     0.00    0.00    0.00    0.00
  125    1.51    0.23    0.76    0.12    0.05    0.00   88.26    2.81    4.96    1.12    0.00    0.00    0.00    0.00    0.27     0.00    0.00    0.00    0.00
  126    2.27    0.47    0.53    0.12    0.01    0.00   86.92    2.90    4.59    1.13    0.00    0.00    0.00    0.00    0.25     0.00    0.00    0.00    0.00
  127   17.08    3.54    2.35    0.13    0.96    0.00   91.79    4.10    4.54    6.03    0.00    0.00    0.01    0.07    0.24     0.01    0.00    0.00    0.00
  128   15.32    6.58    2.84    0.13    1.45    0.00   92.29    3.32    4.05    9.56    0.00    0.00    0.02    0.15    0.28     0.00    0.00    0.00    0.00
  129    6.56    2.62    1.66    0.14    0.27    0.00   91.85    3.13    4.36    4.44    0.00    0.00    0.01    0.02    0.25     0.00    0.00    0.00    0.00
  130    9.09    2.19    1.99    0.14    0.78    0.00   92.13    3.67    4.35    4.33    0.00    0.00    0.01    0.08    0.23     0.00    0.00    0.00    0.00
  131    4.72    1.31    1.19    0.15    0.08    0.00   91.48    3.41    4.11    2.65    0.00    0.00    0.00    0.00    0.27     0.00    0.00    0.00    0.00
  132   10.44    4.98    1.63    0.15    0.42    0.00   92.36    2.44    3.46    6.76    0.00    0.00    0.01    0.07    0.25     0.00    0.00    0.00    0.00
  133   11.78    3.40    2.35    0.16    1.28    0.00   93.81    2.62    3.04    5.93    0.00    0.00    0.02    0.12    0.22     0.00    0.00    0.00    0.00
  134   14.46    6.40    2.88    0.17    1.73    0.00   93.79    2.80    4.15    9.45    0.00    0.00    0.03    0.17    0.23     0.00    0.00    0.00    0.00
  135   15.68    5.37    3.34    0.17    1.67    0.00   94.75    3.92    4.16    8.90    0.00    0.00    0.03    0.16    0.28     0.13    0.00    0.03    0.00
  136    6.03    1.63    1.93    0.18    0.45    0.00   93.85    3.70    4.84    3.75    0.00    0.00    0.01    0.02    0.29     0.00    0.00    0.00    0.00
  137    3.50    0.96    1.16    0.19    0.11    0.00   92.97    2.86    4.62    2.32    0.00    0.00    0.00    0.00    0.27     0.00    0.00    0.00    0.00
  138    6.19    2.42    1.13    0.20    0.06    0.00   92.73    3.16    4.44    3.76    0.00    0.00    0.00    0.00    0.27     0.11    0.00    0.03    0.00
  139   22.83    9.58    3.81    0.21    2.35    0.00   94.66    3.33    5.13   13.60    0.00    0.00    0.04    0.26    0.26     0.00    0.00    0.00    0.00
  140    9.43    1.79    2.65    0.22    0.83    0.00   94.07    5.21    5.91    4.68    0.00    0.00    0.02    0.06    0.31     0.00    0.00    0.00    0.00
  141    1.07    0.12    1.11    0.23    0.11    0.00   92.13    2.70    5.00    1.47    0.00    0.00    0.01    0.00    0.27     0.00    0.00    0.00    0.00
  142    0.85    0.15    0.64    0.23    0.04    0.00   90.43    2.31    4.02    1.03    0.00    0.00    0.00    0.00    0.24     0.00    0.00    0.00    0.00
  143    4.69    0.85    0.85    0.24    0.01    0.00   90.76    2.77    3.64    1.96    0.00    0.00    0.00    0.00    0.24     0.00    0.00    0.00    0.00
  144    0.93    0.16    0.44    0.25    0.00    0.00   88.98    2.50    4.39    0.86    0.00    0.00    0.00    0.00    0.23     0.00    0.00    0.00    0.00
  145    0.84    0.11    0.28    0.25    0.00    0.00   87.00    2.66    4.92    0.65    0.00    0.00    0.00    0.00    0.21     0.00    0.00    0.00    0.00
  146   10.90    1.77    1.22    0.26    0.10    0.00   89.75    4.37    5.29    3.26    0.00    0.00    0.00    0.00    0.27     0.00    0.00    0.00    0.00
  147   10.24    4.19    1.36    0.26    0.20    0.00   91.19    2.86    4.62    5.82    0.00    0.00    0.00    0.00    0.29     0.00    0.00    0.00    0.00
  148    6.72    1.26    1.25    0.27    0.12    0.00   92.23    3.15    3.92    2.80    0.00    0.00    0.00    0.00    0.26     0.00    0.00    0.00    0.00
  149    0.95    0.18    0.57    0.27    0.03    0.00   90.76    2.15    3.31    1.03    0.00    0.00    0.00    0.00    0.26     0.00    0.00    0.00    0.00
  150    2.87    1.16    0.49    0.27    0.01    0.00   89.82    2.35    3.72    1.94    0.00    0.00    0.00    0.00    0.23     0.00    0.00    0.00    0.00
  151    0.73    0.16    0.26    0.27    0.00    0.00   88.64    1.72    3.06    0.71    0.00    0.00    0.00    0.00    0.23     0.00    0.00    0.00    0.00
    5  234.54   77.72   46.56    5.85   14.48    0.00   88.64   95.68  134.87  130.48    0.00    0.04    0.29    1.34    7.96     0.26    0.00    0.07    0.00
  152   14.45    5.98    1.59    0.27    0.23    0.00   92.20    2.30    3.82    7.84    0.00    0.00    0.00    0.02    0.20     0.00    0.00    0.00    0.00
  153    7.11    3.20    1.17    0.28    0.18    0.00   92.63    2.23    3.65    4.65    0.00    0.00    0.00    0.01    0.20     0.00    0.00    0.00    0.00
  154    4.58    1.01    0.89    0.28    0.06    0.00   92.59    2.88    3.55    2.20    0.00    0.00    0.00    0.00    0.19     0.00    0.00    0.00    0.00
  155    1.88    0.26    0.51    0.28    0.01    0.00   91.45    2.50    3.78    1.05    0.00    0.00    0.00    0.00    0.16     0.00    0.00    0.00    0.00
  156    0.11    0.00    0.25    0.28    0.00    0.00   89.26    2.30    4.95    0.54    0.00    0.00    0.00    0.00    0.16     0.00    0.00    0.00    0.00
  157    0.00    0.00    0.15    0.28    0.00    0.00   86.69    2.57    5.36    0.44    0.00    0.00    0.00    0.00    0.26     0.00    0.00    0.00    0.00
  158    0.05    0.00    0.10    0.28    0.00    0.00   84.14    2.59    4.97    0.39    0.00    0.00    0.00    0.00    0.28     0.00    0.00    0.00    0.00
  159    0.00    0.00    0.08    0.27    0.00    0.00   81.37    2.77    5.75    0.36    0.00    0.00    0.00    0.00    0.21     0.00    0.00    0.00    0.00
  160    0.00    0.00    0.06    0.27    0.00    0.00   78.75    2.63    5.45    0.34    0.00    0.00    0.00    0.00    0.22     0.00    0.00    0.00    0.00
  161    0.00    0.00    0.04    0.27    0.00    0.00   76.14    2.61    5.40    0.33    0.00    0.00    0.00    0.00    0.20     0.00    0.00    0.00    0.00
  162   10.40    4.19    0.86    0.27    0.00    0.00   78.82    2.10    3.56    5.32    0.00    0.00    0.00    0.00    0.19     0.00    0.00    0.00    0.00
  163    0.87    0.03    0.31    0.27    0.00    0.00   77.58    2.04    3.22    0.64    0.00    0.00    0.00    0.00    0.20     0.00    0.00    0.00    0.00
  164    0.05    0.00    0.14    0.26    0.00    0.00   75.23    2.39    4.55    0.42    0.00    0.00    0.00    0.00    0.12     0.00    0.00    0.00    0.00
  165   10.61    1.73    1.14    0.26    0.01    0.00   79.37    2.91    3.36    3.15    0.00    0.00    0.00    0.00    0.16     0.00    0.00    0.00    0.00
  166    0.00    0.00    0.39    0.26    0.00    0.00   76.31    3.06    5.26    0.66    0.00    0.00    0.00    0.00    0.15     0.00    0.00    0.00    0.00
  167    0.03    0.00    0.18    0.25    0.00    0.00   73.78    2.56    5.36    0.45    0.00    0.00    0.00    0.00    0.19     0.00    0.00    0.00    0.00
  168    0.49    0.00    0.11    0.24    0.00    0.00   72.47    1.79    3.34    0.37    0.00    0.00    0.00    0.00    0.16     0.00    0.00    0.00    0.00
  169    0.00    0.00    0.08    0.24    0.00    0.00   70.09    2.37    4.88    0.33    0.00    0.00    0.00    0.00    0.14     0.00    0.00    0.00    0.00
  170    0.00    0.00    0.05    0.23    0.00    0.00   67.78    2.31    4.77    0.30    0.00    0.00    0.00    0.00    0.17     0.00    0.00    0.00    0.00
  171    0.24    0.00    0.04    0.23    0.00    0.00   66.06    1.96    3.69    0.28    0.00    0.00    0.00    0.00    0.03     0.00    0.00    0.00    0.00
  172    2.53    0.84    0.15    0.23    0.00    0.00   65.54    1.98    3.16    1.23    0.00    0.00    0.00    0.00    0.26     0.00    0.00    0.00    0.00
  173    4.58    0.80    0.53    0.22    0.00    0.00   66.22    2.37    3.09    1.56    0.00    0.01    0.00    0.00    0.00     0.00    0.00    0.00    0.00
  174   11.61    3.32    1.34    0.21    0.01    0.00   69.75    2.82    3.42    4.89    0.00    0.00    0.00    0.00    0.23     0.00    0.00    0.00    0.00
  175   14.26    4.30    1.87    0.20    0.06    0.00   74.15    3.12    3.64    6.38    0.00    0.00    0.00    0.00    0.13     0.00    0.00    0.00    0.00
  176    0.82    0.08    0.66    0.20    0.00    0.00   72.27    2.55    3.97    0.95    0.00    0.00    0.00    0.00    0.13     0.00    0.00    0.00    0.00
  177    2.81    0.40    0.52    0.20    0.00    0.00   71.78    2.51    3.61    1.13    0.00    0.00    0.00    0.00    0.13     0.00    0.00    0.00    0.00
  178    7.18    3.18    0.89    0.18    0.02    0.00   72.62    2.12    3.54    4.26    0.00    0.00    0.00    0.00    0.12     0.00    0.00    0.00    0.00
  179    0.74    0.06    0.36    0.18    0.00    0.00   71.19    2.07    3.47    0.61    0.00    0.00    0.00    0.00    0.12     0.00    0.00    0.00    0.00
  180    1.70    0.32    0.30    0.17    0.00    0.00   70.22    2.16    3.17    0.81    0.00    0.00    0.00    0.00    0.11     0.00    0.00    0.00    0.00
  181    2.05    0.37    0.30    0.16    0.00    0.00   69.46    2.19    3.70    0.85    0.00    0.00    0.00    0.00    0.11     0.00    0.00    0.00    0.00
    6   99.11   30.05   15.07    7.21    0.58    0.00   69.46   72.76  123.44   52.70    0.00    0.02    0.01    0.03    4.96     0.01    0.00    0.00    0.00
  182    0.23    0.02    0.14    0.16    0.00    0.00   68.90    0.77    4.13    0.33    0.00    0.00    0.00    0.00    0.11     0.00    0.00    0.00    0.00
  183   17.74    7.11    1.71    0.15    0.13    0.00   75.53    1.05    3.53    8.98    0.00    0.00    0.00    0.00    0.12     0.00    0.00    0.00    0.00
  184    8.42    1.62    1.52    0.15    0.09    0.00   78.50    2.20    3.60    3.32    0.00    0.00    0.00    0.00    0.13     0.00    0.00    0.00    0.00
  185    0.00    0.00    0.55    0.14    0.00    0.00   77.49    1.00    5.55    0.70    0.00    0.00    0.00    0.00    0.11     0.00    0.00    0.00    0.00
  186    1.03    0.06    0.30    0.14    0.00    0.00   77.25    1.16    3.55    0.51    0.00    0.00    0.00    0.00    0.14     0.00    0.00    0.00    0.00
  187    0.00    0.00    0.17    0.14    0.00    0.00   76.36    0.89    5.76    0.32    0.00    0.00    0.00    0.00    0.11     0.00    0.00    0.00    0.00
  188    0.00    0.00    0.12    0.13    0.00    0.00   75.48    0.88    5.72    0.26    0.00    0.00    0.00    0.00    0.12     0.00    0.00    0.00    0.00
  189    0.14    0.00    0.09    0.12    0.00    0.00   74.69    0.92    4.81    0.22    0.00    0.00    0.00    0.00    0.14     0.00    0.00    0.00    0.00
  190    0.26    0.00    0.07    0.12    0.00    0.00   74.17    0.77    4.25    0.19    0.00    0.00    0.00    0.00    0.13     0.00    0.00    0.00    0.00
  191    0.00    0.00    0.05    0.11    0.00    0.00   73.24    0.93    6.21    0.17    0.00    0.00    0.00    0.00    0.11     0.00    0.00    0.00    0.00
  192    0.00    0.00    0.04    0.10    0.00    0.00   72.35    0.88    6.03    0.15    0.00    0.00    0.00    0.00    0.11     0.00    0.00    0.00    0.00
  193    1.07    0.25    0.05    0.10    0.00    0.00   72.03    1.11    3.84    0.41    0.00    0.00    0.00    0.00    0.13     0.00    0.00    0.00    0.00
  194    0.04    0.00    0.03    0.09    0.00    0.00   71.31    0.76    5.00    0.13    0.00    0.00    0.00    0.00    0.11     0.00    0.00    0.00    0.00
  195    0.00    0.00    0.02    0.09    0.00    0.00   70.57    0.73    5.14    0.12    0.00    0.00    0.00    0.00    0.10     0.00    0.00    0.00    0.00
  196    0.77    0.18    0.02    0.09    0.00    0.00   70.37    0.78    3.42    0.30    0.00    0.00    0.00    0.00    0.13     0.00    0.00    0.00    0.00
  197    3.27    1.15    0.28    0.09    0.00    0.00   70.61    1.44    3.81    1.53    0.00    0.00    0.00    0.00    0.10     0.00    0.00    0.00    0.00
  198    0.56    0.05    0.09    0.09    0.00    0.00   70.33    0.78    4.16    0.24    0.00    0.00    0.00    0.00    0.10     0.00    0.00    0.00    0.00
  199    0.23    0.00    0.04    0.08    0.00    0.00   69.90    0.65    4.14    0.13    0.00    0.00    0.00    0.00    0.10     0.00    0.00    0.00    0.00
  200    1.81    0.42    0.16    0.07    0.00    0.00   69.71    1.36    3.92    0.66    0.00    0.00    0.00    0.00    0.10     0.00    0.00    0.00    0.00
  201    0.05    0.00    0.06    0.06    0.00    0.00   68.93    0.83    5.26    0.13    0.00    0.00    0.00    0.00    0.10     0.00    0.00    0.00    0.00
  202    4.56    0.72    0.44    0.06    0.02    0.00   70.10    1.95    3.96    1.23    0.00    0.00    0.00    0.01    0.10     0.00    0.00    0.00    0.00
  203    3.22    0.42    0.40    0.06    0.01    0.00   70.80    1.64    4.05    0.89    0.00    0.00    0.00    0.00    0.10     0.00    0.00    0.00    0.00
  204    0.00    0.00    0.15    0.06    0.00    0.00   70.01    0.79    5.67    0.22    0.00    0.00    0.00    0.00    0.09     0.00    0.00    0.00    0.00
  205    6.35    1.20    0.70    0.06    0.08    0.00   72.14    1.89    3.34    1.97    0.00    0.00    0.00    0.01    0.00     0.00    0.00    0.00    0.00
  206    0.00    0.00    0.24    0.05    0.00    0.00   71.24    0.89    5.03    0.31    0.00    0.00    0.00    0.00    0.18     0.00    0.00    0.00    0.00
  207    6.87    2.33    0.70    0.05    0.12    0.00   72.89    1.80    3.37    3.08    0.00    0.00    0.00    0.01    0.00     0.00    0.00    0.00    0.00
  208    7.48    2.92    1.00    0.05    0.25    0.00   74.29    1.64    3.75    3.97    0.00    0.00    0.01    0.03    0.19     0.00    0.00    0.00    0.00
  209    5.08    0.93    0.88    0.05    0.15    0.00   75.21    2.22    3.66    1.87    0.00    0.00    0.01    0.02    0.10     0.00    0.00    0.00    0.00
  210    1.30    0.17    0.39    0.04    0.01    0.00   74.75    1.48    3.82    0.61    0.00    0.00    0.00    0.00    0.09     0.00    0.00    0.00    0.00
  211    3.49    0.65    0.48    0.04    0.08    0.00   75.13    1.86    3.70    1.17    0.00    0.00    0.00    0.00    0.09     0.00    0.00    0.00    0.00
  212    3.49    0.49    0.54    0.04    0.08    0.00   75.72    1.75    3.21    1.09    0.00    0.00    0.00    0.01    0.09     0.00    0.00    0.00    0.00
    7   77.45   20.68   11.40    2.79    1.03    0.00   75.72   37.83  135.39   35.21    0.00    0.01    0.03    0.10    3.31     0.01    0.00    0.00    0.00
  213    0.31    0.00    0.23    0.04    0.01    0.00   75.15    0.85    4.45    0.28    0.00    0.00    0.00    0.00    0.09     0.00    0.00    0.00    0.00
  214    0.00    0.00    0.13    0.03    0.00    0.00   74.34    0.81    5.94    0.17    0.00    0.00    0.00    0.00    0.08     0.00    0.00    0.00    0.00
  215   21.13    6.06    2.88    0.03    2.01    0.00   79.21    2.90    4.25    8.99    0.00    0.00    0.03    0.24    0.08     0.00    0.00    0.00    0.00
  216    0.14    0.00    1.06    0.04    0.14    0.00   78.04    1.15    4.81    1.11    0.00    0.00    0.01    0.01    0.12     0.00    0.00    0.00    0.00
  217    9.27    2.06    1.67    0.04    0.66    0.00   79.27    3.34    4.49    3.78    0.00    0.00    0.02    0.09    0.08     0.00    0.00    0.00    0.00
  218    0.00    0.00    0.69    0.04    0.06    0.00   78.04    1.17    6.10    0.74    0.00    0.00    0.01    0.00    0.10     0.00    0.00    0.00    0.00
  219    0.00    0.00    0.38    0.04    0.01    0.00   77.17    0.86    6.04    0.43    0.00    0.00    0.00    0.00    0.08     0.00    0.00    0.00    0.00
  220    0.00    0.00    0.25    0.05    0.00    0.00   76.46    0.72    5.40    0.30    0.00    0.00    0.00    0.00    0.08     0.00    0.00    0.00    0.00
  221    0.00    0.00    0.18    0.05    0.00    0.00   75.70    0.76    5.90    0.23    0.00    0.00    0.00    0.00    0.08     0.00    0.00    0.00    0.00
  222    0.00    0.00    0.13    0.05    0.00    0.00   75.02    0.68    5.42    0.19    0.00    0.00    0.00    0.00    0.08     0.00    0.00    0.00    0.00
  223    0.00    0.00    0.10    0.05    0.00    0.00   74.34    0.67    5.42    0.16    0.00    0.00    0.00    0.00    0.08     0.00    0.00    0.00    0.00
  224    0.00    0.00    0.07    0.05    0.00    0.00   73.69    0.65    5.34    0.13    0.00    0.00    0.00    0.00    0.08     0.00    0.00    0.00    0.00
  225    3.03    1.32    0.22    0.06    0.01    0.00   74.08    1.02    3.37    1.60    0.00    0.00    0.00    0.00    0.08     0.00    0.00    0.00    0.00
  226   14.71    2.97    2.29    0.06    1.51    0.00   77.52    2.87    3.98    5.34    0.00    0.00    0.04    0.22    0.08     0.00    0.00    0.00    0.00
  227    0.14    0.00    0.80    0.06    0.10    0.00   75.89    1.65    4.70    0.87    0.00    0.00    0.01    0.01    0.10     0.00    0.00    0.00    0.00
  228    0.00    0.00    0.37    0.06    0.03    0.00   75.04    0.82    5.87    0.44    0.00    0.00    0.00    0.00    0.08     0.00    0.00    0.00    0.00
  229    0.00    0.00    0.22    0.06    0.00    0.00   74.20    0.84    6.38    0.29    0.00    0.00    0.00    0.00    0.08     0.00    0.00    0.00    0.00
  230    1.83    0.56    0.21    0.07    0.00    0.00   74.23    1.12    4.48    0.85    0.00    0.00    0.00    0.00    0.07     0.00    0.00    0.00    0.00
  231    4.32    0.77    0.63    0.07    0.27    0.00   74.22    2.36    4.00    1.48    0.00    0.00    0.01    0.03    0.08     0.00    0.00    0.00    0.00
  232    0.00    0.00    0.26    0.07    0.01    0.00   73.46    0.75    6.19    0.34    0.00    0.00    0.00    0.00    0.08     0.00    0.00    0.00    0.00
  233    0.03    0.00    0.14    0.07    0.00    0.00   72.81    0.68    6.20    0.23    0.00    0.00    0.00    0.00    0.07     0.00    0.00    0.00    0.00
  234    0.00    0.00    0.09    0.07    0.00    0.00   72.18    0.63    6.82    0.18    0.00    0.00    0.00    0.00    0.07     0.00    0.00    0.00    0.00
  235    2.48    0.95    0.18    0.08    0.00    0.00   72.48    1.03    4.73    1.21    0.00    0.00    0.00    0.00    0.07     0.00    0.00    0.00    0.00
  236    2.23    0.30    0.28    0.08    0.09    0.00   72.38    1.54    3.70    0.67    0.00    0.00    0.00    0.01    0.07     0.00    0.00    0.00    0.00
  237    0.00    0.00    0.13    0.08    0.00    0.00   71.90    0.48    5.72    0.21    0.00    0.00    0.00    0.00    0.07     0.00    0.00    0.00    0.00
  238    4.30    1.60    0.54    0.08    0.20    0.00   71.90    1.69    3.80    2.22    0.00    0.00    0.01    0.04    0.07     0.00    0.00    0.00    0.00
  239   16.10    2.94    2.65    0.08    1.74    0.00   75.97    2.88    3.78    5.69    0.00    0.00    0.05    0.27    0.07     0.00    0.00    0.00    0.00
  240    0.00    0.00    0.94    0.08    0.12    0.00   73.78    2.05    6.03    1.03    0.00    0.00    0.01    0.01    0.10     0.00    0.00    0.00    0.00
  241    0.31    0.00    0.46    0.09    0.04    0.00   73.16    0.87    5.39    0.56    0.00    0.00    0.00    0.00    0.07     0.00    0.00    0.00    0.00
  242    0.18    0.00    0.28    0.09    0.01    0.00   72.80    0.53    4.42    0.38    0.00    0.00    0.00    0.00    0.07     0.00    0.00    0.00    0.00
  243    3.38    1.10    0.45    0.09    0.14    0.00   72.90    1.52    3.97    1.65    0.00    0.00    0.00    0.01    0.07     0.00    0.00    0.00    0.00
    8   83.90   20.63   18.92    1.92    7.16    0.00   72.90   39.89  157.07   41.76    0.00    0.01    0.22    0.94    2.51     0.00    0.00    0.00    0.00
  244    0.36    0.02    0.24    0.09    0.01    0.00   72.58    0.64    4.47    0.37    0.00    0.00    0.00    0.00    0.07     0.00    0.00    0.00    0.00
  245    0.65    0.06    0.16    0.10    0.00    0.00   72.42    0.73    4.04    0.33    0.00    0.00    0.00    0.00    0.07     0.00    0.00    0.00    0.00
  246    1.61    0.41    0.26    0.10    0.02    0.00   72.03    1.35    4.58    0.78    0.00    0.00    0.00    0.01    0.07     0.00    0.00    0.00    0.00
  247   14.60    2.94    2.42    0.10    1.55    0.00   74.97    3.13    4.03    5.47    0.00    0.00    0.05    0.26    0.07     0.00    0.00    0.00    0.00
  248   17.68    8.79    3.07    0.11    1.73    0.00   75.38    2.79    3.99   11.97    0.01    0.00    0.07    0.29    0.09     0.04    0.00    0.01    0.00
  249    7.10    2.62    2.00    0.11    0.69    0.00   75.15    2.42    4.48    4.75    0.00    0.00    0.03    0.09    0.09     0.00    0.00    0.00    0.00
  250   18.08    7.11    3.54    0.12    2.23    0.00   76.84    2.12    4.57   10.78    0.00    0.00    0.07    0.33    0.08     0.00    0.00    0.00    0.00
  251    4.02    0.67    1.84    0.13    0.32    0.00   76.25    2.85    5.06    2.64    0.00    0.00    0.02    0.03    0.10     0.00    0.00    0.00    0.00
  252    0.27    0.00    0.89    0.13    0.07    0.00   75.18    1.23    6.42    1.03    0.00    0.00    0.01    0.00    0.07     0.00    0.00    0.00    0.00
  253    0.00    0.00    0.54    0.14    0.02    0.00   74.21    0.96    6.61    0.69    0.00    0.00    0.00    0.00    0.07     0.00    0.00    0.00    0.00
  254    0.00    0.00    0.37    0.15    0.00    0.00   73.47    0.73    6.79    0.53    0.00    0.00    0.00    0.00    0.06     0.00    0.00    0.00    0.00
  255    2.10    0.34    0.40    0.15    0.00    0.00   73.40    1.63    5.59    0.90    0.00    0.00    0.00    0.00    0.06     0.00    0.00    0.00    0.00
  256    4.39    0.77    0.69    0.16    0.17    0.00   73.22    2.85    5.21    1.63    0.00    0.00    0.01    0.02    0.06     0.00    0.00    0.00    0.00
  257    2.76    0.80    0.48    0.16    0.00    0.00   73.36    1.54    4.47    1.45    0.00    0.00    0.00    0.00    0.08     0.00    0.00    0.00    0.00
  258   15.37    6.67    2.32    0.17    1.61    0.00   74.45    2.21    4.79    9.16    0.00    0.00    0.05    0.25    0.07     0.00    0.00    0.00    0.00
  259    1.66    0.32    0.91    0.17    0.10    0.00   73.78    1.78    5.57    1.42    0.00    0.00    0.01    0.01    0.09     0.00    0.00    0.00    0.00
  260    0.00    0.00    0.44    0.18    0.02    0.00   72.96    0.80    7.78    0.63    0.00    0.00    0.00    0.00    0.06     0.00    0.00    0.00    0.00
  261    9.63    3.76    1.03    0.18    0.39    0.00   73.93    3.22    5.31    4.97    0.00    0.00    0.01    0.07    0.06     0.00    0.00    0.00    0.00
  262    7.39    1.36    1.44    0.18    0.54    0.00   73.98    3.69    5.17    3.00    0.00    0.00    0.02    0.08    0.07     0.00    0.00    0.00    0.00
  263    0.82    0.11    0.58    0.19    0.02    0.00   73.21    1.42    6.13    0.89    0.00    0.00    0.01    0.00    0.09     0.00    0.00    0.00    0.00
  264    0.00    0.00    0.30    0.19    0.00    0.00   72.60    0.61    7.21    0.51    0.00    0.00    0.00    0.00    0.06     0.00    0.00    0.00    0.00
  265   17.05    3.13    2.90    0.20    1.97    0.00   76.40    3.28    4.46    6.23    0.00    0.00    0.05    0.28    0.06     0.00    0.00    0.00    0.00
  266    0.00    0.00    1.05    0.20    0.13    0.00   74.13    2.13    6.02    1.26    0.00    0.00    0.01    0.01    0.09     0.00    0.00    0.00    0.00
  267    0.00    0.00    0.51    0.21    0.03    0.00   73.41    0.68    5.95    0.73    0.00    0.00    0.00    0.00    0.06     0.00    0.00    0.00    0.00
  268    0.00    0.00    0.32    0.21    0.00    0.00   72.88    0.54    6.31    0.54    0.00    0.00    0.00    0.00    0.06     0.00    0.00    0.00    0.00
  269    0.00    0.00    0.22    0.21    0.00    0.00   72.50    0.38    5.94    0.44    0.00    0.00    0.00    0.00    0.06     0.00    0.00    0.00    0.00
  270   16.85    4.15    2.80    0.22    1.77    0.00   75.83    3.02    3.95    7.18    0.00    0.00    0.06    0.29    0.06     0.00    0.00    0.00    0.00
  271    7.43    2.87    1.96    0.22    0.82    0.00   74.89    2.86    3.82    5.04    0.00    0.00    0.03    0.11    0.09     0.00    0.00    0.00    0.00
  272   11.61    3.49    2.52    0.23    1.39    0.00   75.63    2.82    4.34    6.26    0.00    0.00    0.04    0.18    0.07     0.00    0.00    0.00    0.00
  273    3.89    0.69    1.36    0.23    0.27    0.00   75.54    2.35    4.51    2.29    0.00    0.00    0.01    0.02    0.08     0.00    0.00    0.00    0.00
    9  165.33   51.08   37.57    4.92   15.90    0.00   75.54   56.73  157.55   93.86    0.01    0.01    0.61    2.34    2.17     0.05    0.00    0.01    0.00
  274    1.09    0.20    0.72    0.24    0.06    0.00   74.98    1.32    4.51    1.16    0.00    0.00    0.01    0.00    0.07     0.00    0.00    0.00    0.00
  275   19.05    7.92    2.78    0.24    1.37    0.00   77.34    3.65    4.78   10.95    0.07    0.01    0.06    0.27    0.06     0.45    0.00    0.07    0.00
  276    9.97    2.04    2.55    0.25    1.10    0.00   78.82    2.58    3.24    4.86    0.00    0.00    0.04    0.15    0.09     0.02    0.00    0.00    0.00
  277   16.35    8.42    2.90    0.26    1.60    0.00   78.38    3.33    4.27   11.59    0.01    0.00    0.05    0.22    0.08     0.07    0.00    0.01    0.00
  278    7.45    1.59    2.16    0.27    0.66    0.00   79.22    2.65    3.40    4.03    0.00    0.00    0.03    0.08    0.08     0.00    0.00    0.00    0.00
  279    9.59    2.35    2.32    0.27    1.00    0.00   79.98    3.06    3.70    4.95    0.00    0.00    0.03    0.13    0.07     0.00    0.00    0.00    0.00
  280    0.34    0.16    0.99    0.28    0.09    0.00   77.90    2.15    5.70    1.44    0.00    0.00    0.01    0.00    0.08     0.00    0.00    0.00    0.00
  281    2.87    0.85    0.75    0.29    0.02    0.00   77.85    1.76    4.35    1.89    0.00    0.00    0.00    0.00    0.06     0.00    0.00    0.00    0.00
  282   10.04    2.82    2.06    0.29    1.10    0.00   78.39    2.79    3.86    5.19    0.00    0.00    0.04    0.18    0.06     0.00    0.00    0.00    0.00
  283   10.09    4.62    2.08    0.30    0.91    0.00   78.55    2.17    3.88    7.00    0.00    0.00    0.03    0.13    0.07     0.00    0.00    0.00    0.00
  284    4.15    0.74    1.36    0.31    0.20    0.00   78.69    2.27    4.22    2.42    0.00    0.00    0.02    0.03    0.07     0.00    0.00    0.00    0.00
  285    0.16    0.00    0.60    0.31    0.02    0.00   77.96    0.86    5.09    0.93    0.00    0.00    0.00    0.00    0.07     0.00    0.00    0.00    0.00
  286    1.38    0.06    0.48    0.32    0.05    0.00   77.24    1.74    5.25    0.87    0.00    0.00    0.00    0.01    0.06     0.00    0.00    0.00    0.00
  287    1.44    0.42    0.33    0.32    0.00    0.00   76.68    1.49    5.59    1.08    0.00    0.00    0.00    0.00    0.06     0.00    0.00    0.00    0.00
  288    1.81    0.58    0.28    0.32    0.05    0.00   76.39    1.30    3.67    1.19    0.00    0.00    0.00    0.00    0.06     0.00    0.00    0.00    0.00
  289    4.75    1.65    0.65    0.33    0.32    0.00   76.30    1.94    3.82    2.64    0.00    0.00    0.01    0.03    0.06     0.00    0.00    0.00    0.00
  290   10.97    3.00    1.97    0.33    1.05    0.00   76.96    3.43    4.35    5.32    0.02    0.00    0.04    0.17    0.06     0.12    0.00    0.02    0.00
  291   11.06    4.85    2.22    0.33    1.06    0.00   77.26    2.24    4.45    7.41    0.00    0.00    0.04    0.16    0.07     0.00    0.00    0.00    0.00
  292    5.01    1.82    1.24    0.34    0.20    0.00   77.21    2.30    4.40    3.42    0.00    0.00    0.01    0.02    0.07     0.00    0.00    0.00    0.00
  293   11.85    4.38    2.34    0.34    1.13    0.00   78.30    2.33    3.38    7.08    0.00    0.00    0.05    0.20    0.06     0.00    0.00    0.00    0.00
  294    4.56    1.04    1.37    0.35    0.22    0.00   77.99    2.81    4.45    2.77    0.00    0.00    0.02    0.03    0.08     0.00    0.00    0.00    0.00
  295    0.34    0.01    0.58    0.35    0.02    0.00   77.50    0.78    3.35    0.95    0.00    0.00    0.01    0.00    0.05     0.00    0.00    0.00    0.00
  296    4.02    1.11    0.67    0.35    0.14    0.00   77.82    1.82    3.01    2.14    0.00    0.00    0.00    0.01    0.00     0.00    0.00    0.00    0.00
  297    3.67    0.65    0.77    0.36    0.26    0.00   77.57    2.21    3.45    1.79    0.00    0.00    0.01    0.03    0.00     0.00    0.00    0.00    0.00
  298    0.95    0.11    0.38    0.36    0.01    0.00   77.41    0.92    3.73    0.85    0.00    0.00    0.00    0.00    0.19     0.00    0.00    0.00    0.00
  299    0.19    0.01    0.23    0.36    0.00    0.00   76.90    0.69    4.27    0.61    0.00    0.00    0.00    0.00    0.06     0.00    0.00    0.00    0.00
  300    0.04    0.00    0.15    0.36    0.00    0.00   76.27    0.67    5.03    0.53    0.00    0.00    0.00    0.00    0.05     0.00    0.00    0.00    0.00
  301    0.00    0.00    0.11    0.36    0.00    0.00   75.60    0.66    5.61    0.48    0.00    0.00    0.00    0.00    0.05     0.00    0.00    0.00    0.00
  302    0.40    0.03    0.10    0.36    0.00    0.00   75.27    0.68    4.63    0.50    0.00    0.00    0.00    0.00    0.05     0.00    0.00    0.00    0.00
  303    4.08    0.70    0.55    0.36    0.20    0.00   75.02    2.61    4.33    1.62    0.00    0.00    0.01    0.03    0.05     0.00    0.00    0.00    0.00
  304   12.89    6.27    1.63    0.36    0.60    0.00   75.97    2.88    4.50    8.27    0.03    0.00    0.03    0.13    0.06     0.96    0.00    0.12    0.00
   10  170.55   58.39   37.32    9.85   13.44    0.00   75.97   62.09  132.29  105.95    0.15    0.02    0.55    2.03    2.01     1.62    0.00    0.22    0.00
  305    4.94    2.26    0.91    0.36    0.13    0.00   76.22    1.64    3.74    3.54    0.00    0.00    0.01    0.02    0.08     0.01    0.00    0.00    0.00
  306   12.12    5.31    2.05    0.36    1.32    0.00   76.80    1.84    3.34    7.73    0.00    0.00    0.04    0.20    0.06     0.00    0.00    0.00    0.00
  307    7.41    1.48    1.74    0.36    0.77    0.00   77.48    2.65    3.32    3.60    0.00    0.00    0.03    0.09    0.07     0.00    0.00    0.00    0.00
  308    7.92    3.77    1.64    0.36    0.64    0.00   77.04    2.36    4.42    5.77    0.00    0.00    0.03    0.10    0.07     0.00    0.00    0.00    0.00
  309    7.94    1.86    1.72    0.36    0.62    0.00   77.43    3.28    4.11    3.97    0.00    0.00    0.02    0.08    0.06     0.00    0.00    0.00    0.00
  310    2.87    0.54    0.90    0.36    0.05    0.00   77.58    1.77    4.22    1.82    0.00    0.00    0.01    0.00    0.07     0.00    0.00    0.00    0.00
  311    0.00    0.00    0.44    0.36    0.01    0.00   76.98    0.59    3.99    0.82    0.00    0.00    0.00    0.00    0.06     0.00    0.00    0.00    0.00
  312    0.13    0.05    0.27    0.36    0.00    0.00   76.33    0.73    4.60    0.69    0.00    0.00    0.00    0.00    0.05     0.00    0.00    0.00    0.00
  313    0.00    0.00    0.19    0.36    0.00    0.00   75.61    0.72    5.85    0.56    0.00    0.00    0.00    0.00    0.05     0.00    0.00    0.00    0.00
  314    0.48    0.05    0.15    0.36    0.02    0.00   75.19    0.79    4.13    0.57    0.00    0.00    0.00    0.00    0.05     0.00    0.00    0.00    0.00
  315    0.33    0.00    0.11    0.36    0.00    0.00   75.08    0.44    3.60    0.49    0.00    0.00    0.00    0.00    0.05     0.00    0.00    0.00    0.00
  316    0.00    0.00    0.08    0.36    0.00    0.00   74.77    0.31    3.97    0.45    0.00    0.00    0.00    0.00    0.05     0.00    0.00    0.00    0.00
  317    1.29    0.21    0.11    0.36    0.01    0.00   74.67    1.08    3.20    0.69    0.00    0.00    0.00    0.00    0.05     0.00    0.00    0.00    0.00
  318    5.00    0.73    0.80    0.35    0.43    0.00   74.57    2.65    4.47    1.90    0.00    0.00    0.01    0.07    0.05     0.01    0.00    0.00    0.00
  319    0.26    0.03    0.28    0.35    0.01    0.00   74.33    0.45    4.43    0.67    0.00    0.00    0.00    0.00    0.06     0.00    0.00    0.00    0.00
  320    0.00    0.00    0.13    0.35    0.00    0.00   73.94    0.39    4.88    0.50    0.00    0.00    0.00    0.00    0.05     0.00    0.00    0.00    0.00
  321    2.05    0.27    0.25    0.35    0.00    0.00   74.50    0.93    3.54    0.88    0.00    0.00    0.00    0.00    0.05     0.00    0.00    0.00    0.00
  322    1.35    0.31    0.17    0.34    0.00    0.00   74.30    1.16    4.17    0.83    0.00    0.00    0.00    0.00    0.05     0.00    0.00    0.00    0.00
  323    1.43    0.31    0.13    0.34    0.00    0.00   74.30    1.03    3.45    0.79    0.00    0.00    0.00    0.00    0.05     0.00    0.00    0.00    0.00
  324    3.62    0.54    0.47    0.33    0.19    0.00   73.85    2.62    4.36    1.36    0.00    0.00    0.01    0.03    0.05     0.00    0.00    0.00    0.00
  325    6.22    2.38    0.69    0.33    0.14    0.00   74.38    2.33    4.00    3.42    0.00    0.00    0.01    0.02    0.06     0.00    0.00    0.00    0.00
  326    4.66    0.82    0.83    0.33    0.22    0.00   74.34    2.71    4.27    1.99    0.00    0.00    0.01    0.04    0.06     0.00    0.00    0.00    0.00
  327    7.26    1.97    1.12    0.32    0.53    0.00   74.72    2.87    4.08    3.43    0.00    0.00    0.01    0.07    0.06     0.00    0.00    0.00    0.00
  328    9.88    4.40    1.74    0.32    0.79    0.00   75.07    2.19    3.84    6.46    0.00    0.00    0.03    0.15    0.06     0.00    0.00    0.00    0.00
  329    6.78    1.35    1.55    0.32    0.58    0.00   76.04    2.24    2.99    3.25    0.00    0.00    0.02    0.08    0.07     0.00    0.00    0.00    0.00
  330    3.46    0.90    0.98    0.32    0.15    0.00   75.61    2.25    3.84    2.22    0.00    0.00    0.01    0.02    0.06     0.00    0.00    0.00    0.00
  331    2.95    0.28    0.70    0.32    0.35    0.00   74.85    2.37    4.88    1.32    0.00    0.00    0.01    0.03    0.06     0.00    0.00    0.00    0.00
  332    0.38    0.01    0.37    0.32    0.03    0.00   74.40    0.77    4.61    0.71    0.00    0.00    0.00    0.00    0.05     0.00    0.00    0.00    0.00
  333    4.08    1.21    0.62    0.31    0.15    0.00   74.85    1.56    3.71    2.15    0.00    0.00    0.00    0.02    0.05     0.00    0.00    0.00    0.00
  334    4.79    0.89    0.94    0.31    0.47    0.00   74.99    2.06    3.05    2.16    0.00    0.00    0.01    0.05    0.06     0.00    0.00    0.00    0.00
   11  109.59   31.93   22.08   10.30    7.61    0.00   74.99   48.79  121.07   64.75    0.00    0.01    0.29    1.08    1.73     0.03    0.00    0.01    0.00
  335    1.83    0.31    0.50    0.31    0.04    0.00   75.10    1.21    2.60    1.13    0.00    0.00    0.00    0.00    0.00     0.00    0.00    0.00    0.00
  336    0.00    0.00    0.27    0.30    0.01    0.00   74.59    0.50    4.66    0.59    0.00    0.00    0.00    0.00    0.11     0.00    0.00    0.00    0.00
  337    0.00    0.00    0.17    0.30    0.00    0.00   74.29    0.29    3.51    0.49    0.00    0.00    0.00    0.00    0.00     0.00    0.00    0.00    0.00
  338    1.28    0.05    0.19    0.30    0.03    0.00   74.65    0.69    1.86    0.55    0.00    0.00    0.00    0.00    0.00     0.00    0.00    0.00    0.00
  339    3.90    1.02    0.73    0.29    0.45    0.00   75.26    0.70    1.12    2.06    0.00    0.00    0.01    0.06    0.00     0.00    0.00    0.00    0.00
  340    0.01    0.00    0.29    0.29    0.03    0.00   74.82    0.41    4.24    0.60    0.00    0.00    0.00    0.00    0.19     0.00    0.00    0.00    0.00
  341    1.62    0.82    0.16    0.29    0.00    0.00   74.76    0.85    3.91    1.28    0.00    0.00    0.00    0.00    0.04     0.00    0.00    0.00    0.00
  342    0.01    0.00    0.10    0.28    0.00    0.00   74.27    0.50    4.15    0.40    0.00    0.00    0.00    0.00    0.05     0.00    0.00    0.00    0.00
  343    0.00    0.00    0.07    0.28    0.00    0.00   74.04    0.22    4.12    0.36    0.00    0.00    0.00    0.00    0.05     0.00    0.00    0.00    0.00
  344    0.00    0.00    0.05    0.27    0.00    0.00   73.84    0.21    4.29    0.34    0.00    0.00    0.00    0.00    0.05     0.00    0.00    0.00    0.00
  345    0.00    0.00    0.04    0.27    0.00    0.00   73.63    0.21    5.21    0.32    0.00    0.00    0.00    0.00    0.05     0.00    0.00    0.00    0.00
  346    4.20    0.73    0.63    0.27    0.43    0.00   74.26    1.33    1.87    1.64    0.00    0.00    0.01    0.07    0.05     0.00    0.00    0.00    0.00
  347    0.00    0.00    0.22    0.26    0.03    0.00   73.80    0.43    2.89    0.50    0.00    0.00    0.00    0.00    0.05     0.00    0.00    0.00    0.00
  348    1.23    0.16    0.22    0.26    0.01    0.00   74.09    0.60    2.37    0.65    0.00    0.00    0.00    0.00    0.05     0.00    0.00    0.00    0.00
  349    0.00    0.00    0.10    0.24    0.00    0.00   73.84    0.25    4.40    0.35    0.00    0.00    0.00    0.00    0.05     0.00    0.00    0.00    0.00
  350    0.00    0.00    0.06    0.23    0.00    0.00   73.62    0.22    4.53    0.30    0.00    0.00    0.00    0.00    0.05     0.00    0.00    0.00    0.00
  351    0.00    0.00    0.04    0.22    0.00    0.00   73.46    0.16    3.85    0.27    0.00    0.00    0.00    0.00    0.04     0.00    0.00    0.00    0.00
  352    0.00    0.00    0.03    0.21    0.00    0.00   73.33    0.13    3.16    0.25    0.00    0.00    0.00    0.00    0.04     0.00    0.00    0.00    0.00
  353    0.00    0.00    0.02    0.20    0.00    0.00   73.33    0.00    3.35    0.24    0.00    0.00    0.00    0.00    0.00     0.00    0.00    0.00    0.00
  354    0.65    0.05    0.09    0.19    0.02    0.00   73.42    0.38    3.50    0.35    0.00    0.00    0.00    0.01    0.00     0.00    0.00    0.00    0.00
  355    0.92    0.12    0.06    0.19    0.02    0.00   73.64    0.48    1.85    0.38    0.00    0.00    0.00    0.00    0.00     0.00    0.00    0.00    0.00
  356    0.00    0.00    0.03    0.18    0.00    0.00   73.60    0.04    3.81    0.22    0.00    0.00    0.00    0.00    0.00     0.00    0.00    0.00    0.00
  357    0.00    0.00    0.02    0.17    0.00    0.00   73.60    0.00    4.14    0.20    0.00    0.00    0.00    0.00    0.00     0.00    0.00    0.00    0.00
  358    0.00    0.00    0.01    0.15    0.00    0.00   73.60    0.00    4.66    0.18    0.00    0.00    0.00    0.00    0.00     0.00    0.00    0.00    0.00
  359    0.00    0.00    0.01    0.14    0.00    0.00   73.60    0.00    5.16    0.17    0.00    0.00    0.00    0.00    0.00     0.00    0.00    0.00    0.00
  360    0.00    0.00    0.01    0.14    0.00    0.00   73.60    0.00    4.67    0.16    0.00    0.00    0.00    0.00    0.00     0.00    0.00    0.00    0.00
  361    0.00    0.00    0.00    0.13    0.00    0.00   73.60    0.00    4.38    0.15    0.00    0.00    0.00    0.00    0.00     0.00    0.00    0.00    0.00
  362    0.00    0.00    0.00    0.12    0.00    0.00   73.60    0.00    4.66    0.13    0.00    0.00    0.00    0.00    0.40     0.00    0.00    0.00    0.00
  363    0.00    0.00    0.00    0.11    0.00    0.00   73.60    0.00    4.36    0.13    0.00    0.00    0.00    0.00    0.19     0.00    0.00    0.00    0.00
  364    0.19    0.00    0.01    0.11    0.00    0.00   73.66    0.13    3.31    0.13    0.00    0.00    0.00    0.00    0.11     0.00    0.00    0.00    0.00
  365    0.00    0.00    0.00    0.10    0.00    0.00   73.65    0.01    4.60    0.12    0.00    0.00    0.00    0.00    0.22     0.00    0.00    0.00    0.00
   12   15.84    3.28    4.12    6.81    1.07    0.00   73.65    9.96  115.18   14.64    0.00    0.00    0.05    0.16    1.77     0.00    0.00    0.00    0.00

 2018 1350.86  420.72  264.73   63.92   81.94    0.00   73.65  588.07 1537.04  753.95    0.55    4.30    3.11   10.48   76.53     4.44    0.03    0.79    0.00
1
    SWAT Sep 7    VER 2018/Rev 670                                                  

    General Input/Output section (file.cio):                                        
    10/24/2022 12:00:00 AM ARCGIS-SWAT interface AV                                 
                                                                                    
Annual Summary for Watershed in year    3 of simulation

UNIT                                    PERCO    TILE                           WATER     SED     NO3     NO3     NO3     NO3        N       P       P
TIME     PREC    SURQ    LATQ     GWQ    LATE       Q     SW       ET     PET   YIELD   YIELD    SURQ    LATQ    PERC    CROP  ORGANIC SOLUBLE ORGANIC TILENO3
         (mm)    (mm)    (mm)    (mm)    (mm)    (mm)    (mm)    (mm)    (mm)    (mm)   (t/ha)  ------------------(kg nutrient/ha)-------------------- (kg/ha)
    1    0.00    0.00    0.00    0.10    0.00    0.00   73.65    0.00    3.58    0.11    0.00    0.00    0.00    0.00    0.00     0.00    0.00    0.00    0.00
    2    0.00    0.00    0.00    0.09    0.00    0.00   73.65    0.00    4.69    0.10    0.00    0.00    0.00    0.00    0.00     0.00    0.00    0.00    0.00
    3    0.00    0.00    0.00    0.08    0.00    0.00   73.65    0.00    4.27    0.10    0.00    0.00    0.00    0.00    0.00     0.00    0.00    0.00    0.00
    4    0.00    0.00    0.00    0.07    0.00    0.00   73.65    0.00    4.87    0.08    0.00    0.00    0.00    0.00    0.00     0.00    0.00    0.00    0.00
    5    0.02    0.01    0.00    0.07    0.00    0.00   73.66    0.01    4.49    0.09    0.00    0.00    0.00    0.00    0.00     0.00    0.00    0.00    0.00
    6   12.40    4.57    2.11    0.07    1.23    0.00   75.95    1.09    2.02    6.76    0.06    0.02    0.08    0.30    0.00     0.49    0.00    0.12    0.00
    7    3.81    0.47    1.10    0.07    0.56    0.00   76.07    1.56    2.86    1.66    0.00    0.01    0.04    0.06    0.00     0.02    0.00    0.01    0.00
    8   11.29    4.75    1.95    0.08    1.35    0.00   76.30    2.08    3.98    6.79    0.00    0.00    0.06    0.21    0.00     0.00    0.00    0.00    0.00
    9    2.13    0.34    0.86    0.08    0.12    0.00   76.50    1.23    3.51    1.29    0.00    0.02    0.02    0.01    0.00     0.00    0.00    0.00    0.00
   10    2.63    0.30    0.68    0.09    0.29    0.00   76.69    1.26    3.23    1.08    0.00    0.01    0.01    0.02    0.00     0.01    0.00    0.01    0.00
   11    0.10    0.03    0.38    0.09    0.03    0.00   76.27    0.47    4.37    0.51    0.00    0.00    0.00    0.00    0.00     0.00    0.00    0.00    0.00
   12    0.00    0.00    0.25    0.09    0.00    0.00   76.13    0.14    5.09    0.36    0.00    0.00    0.00    0.00    0.00     0.00    0.00    0.00    0.00
   13    0.21    0.00    0.18    0.10    0.00    0.00   76.21    0.13    4.07    0.29    0.00    0.00    0.00    0.00    0.00     0.00    0.00    0.00    0.00
   14    0.45    0.06    0.14    0.10    0.00    0.00   76.32    0.26    2.40    0.31    0.00    0.01    0.00    0.00    0.00     0.00    0.00    0.00    0.00
   15    0.00    0.00    0.10    0.10    0.00    0.00   76.31    0.01    4.45    0.22    0.00    0.00    0.00    0.00    0.00     0.00    0.00    0.00    0.00
   16    0.33    0.03    0.08    0.10    0.00    0.00   76.36    0.24    3.39    0.23    0.00    0.01    0.00    0.00    0.00     0.00    0.00    0.00    0.00
   17    1.55    0.26    0.18    0.11    0.02    0.00   76.54    0.88    3.16    0.56    0.00    0.04    0.01    0.01    0.00     0.00    0.00    0.00    0.00
   18    0.00    0.00    0.08    0.11    0.00    0.00   76.49    0.06    4.60    0.20    0.00    0.00    0.00    0.00    0.00     0.00    0.00    0.00    0.00
   19    3.99    0.57    0.53    0.11    0.33    0.00   77.44    1.22    2.05    1.23    0.00    0.03    0.02    0.04    0.00     0.00    0.00    0.00    0.00
   20    0.04    0.00    0.20    0.11    0.02    0.00   77.16    0.30    4.42    0.33    0.00    0.00    0.01    0.00    0.00     0.00    0.00    0.00    0.00
   21    0.00    0.00    0.10    0.11    0.00    0.00   77.10    0.06    4.52    0.23    0.00    0.00    0.00    0.00    0.00     0.00    0.00    0.00    0.00
   22    0.00    0.00    0.07    0.11    0.00    0.00   77.10    0.00    4.19    0.19    0.00    0.00    0.00    0.00    0.00     0.00    0.00    0.00    0.00
   23    0.00    0.00    0.05    0.11    0.00    0.00   77.10    0.00    4.39    0.17    0.00    0.00    0.00    0.00    0.00     0.00    0.00    0.00    0.00
   24    0.00    0.00    0.03    0.11    0.00    0.00   77.10    0.00    3.25    0.16    0.00    0.00    0.00    0.00    0.00     0.00    0.00    0.00    0.00
   25    0.00    0.00    0.03    0.11    0.00    0.00   77.10    0.00    3.62    0.15    0.00    0.00    0.00    0.00    0.00     0.00    0.00    0.00    0.00
   26    0.31    0.00    0.02    0.11    0.00    0.00   77.24    0.17    3.35    0.15    0.00    0.00    0.00    0.00    0.00     0.00    0.00    0.00    0.00
   27    0.81    0.18    0.05    0.11    0.00    0.00   77.16    0.64    3.34    0.35    0.00    0.05    0.01    0.00    0.00     0.00    0.00    0.00    0.00
   28    2.19    0.29    0.20    0.11    0.06    0.00   77.12    1.58    3.87    0.61    0.00    0.03    0.02    0.01    0.00     0.00    0.00    0.00    0.00
   29    0.00    0.00    0.07    0.10    0.00    0.00   77.04    0.08    6.11    0.18    0.00    0.00    0.00    0.00    0.00     0.00    0.00    0.00    0.00
   30    0.00    0.00    0.03    0.10    0.00    0.00   77.04    0.00    4.51    0.14    0.00    0.00    0.00    0.00    0.00     0.00    0.00    0.00    0.00
   31    0.00    0.00    0.02    0.10    0.00    0.00   77.04    0.00    4.00    0.13    0.00    0.00    0.00    0.00    0.00     0.00    0.00    0.00    0.00
    1   42.26   11.85    9.50    3.01    4.01    0.00   77.04   13.46  120.66   24.75    0.06    0.24    0.29    0.67    0.00     0.53    0.00    0.14    0.00
   32    2.71    0.49    0.30    0.09    0.06    0.00   77.40    1.37    3.74    0.89    0.00    0.07    0.02    0.01    0.00     0.00    0.00    0.00    0.00
   33    0.00    0.00    0.09    0.09    0.00    0.00   77.33    0.08    3.24    0.19    0.00    0.00    0.01    0.00    0.00     0.00    0.00    0.00    0.00
   34    0.53    0.07    0.04    0.09    0.00    0.00   77.64    0.15    1.76    0.21    0.00    0.02    0.00    0.00    0.00     0.00    0.00    0.00    0.00
   35    0.00    0.00    0.02    0.08    0.00    0.00   77.64    0.00    4.88    0.11    0.00    0.00    0.00    0.00    0.00     0.00    0.00    0.00    0.00
   36    0.10    0.00    0.01    0.07    0.00    0.00   77.65    0.08    4.74    0.09    0.00    0.00    0.00    0.00    0.00     0.00    0.00    0.00    0.00
   37    0.00    0.00    0.01    0.06    0.00    0.00   77.63    0.02    4.65    0.08    0.00    0.00    0.00    0.00    0.00     0.00    0.00    0.00    0.00
   38    0.19    0.00    0.01    0.06    0.00    0.00   77.66    0.17    3.90    0.08    0.00    0.00    0.00    0.00    0.00     0.00    0.00    0.00    0.00
   39    0.00    0.00    0.00    0.05    0.00    0.00   77.66    0.00    4.81    0.07    0.00    0.00    0.00    0.00    0.00     0.00    0.00    0.00    0.00
   40    0.45    0.08    0.03    0.05    0.00    0.00   77.45    0.53    4.37    0.16    0.00    0.02    0.00    0.00    0.00     0.00    0.00    0.00    0.00
   41    1.36    0.11    0.12    0.05    0.01    0.00   77.77    0.73    3.20    0.29    0.00    0.03    0.01    0.01    0.00     0.00    0.00    0.00    0.00
   42    0.40    0.02    0.04    0.05    0.00    0.00   77.89    0.25    3.17    0.12    0.00    0.01    0.00    0.00    0.00     0.00    0.00    0.00    0.00
   43    0.23    0.06    0.02    0.04    0.00    0.00   77.92    0.15    4.44    0.13    0.00    0.02    0.00    0.00    0.00     0.00    0.00    0.00    0.00
   44    0.00    0.00    0.01    0.03    0.00    0.00   77.90    0.02    5.21    0.05    0.00    0.00    0.00    0.00    0.00     0.00    0.00    0.00    0.00
   45    1.28    0.25    0.07    0.03    0.00    0.00   77.96    0.87    2.22    0.36    0.00    0.07    0.01    0.00    0.00     0.00    0.00    0.00    0.00
   46    0.00    0.00    0.02    0.03    0.00    0.00   77.91    0.05    4.99    0.06    0.00    0.00    0.00    0.00    0.00     0.00    0.00    0.00    0.00
   47    0.92    0.18    0.04    0.03    0.01    0.00   78.00    0.59    3.49    0.26    0.00    0.06    0.00    0.00    0.00     0.00    0.00    0.00    0.00
   48    0.00    0.00    0.01    0.03    0.00    0.00   77.98    0.03    4.51    0.05    0.00    0.00    0.00    0.00    0.00     0.00    0.00    0.00    0.00
   49    7.40    2.67    1.13    0.03    0.86    0.00   78.56    1.31    2.60    3.84    0.00    0.00    0.05    0.17    0.00     0.00    0.00    0.00    0.00
   50    2.67    0.93    0.65    0.03    0.12    0.00   79.07    0.71    2.13    1.63    0.00    0.05    0.03    0.03    0.00     0.00    0.00    0.00    0.00
   51    3.49    1.00    0.61    0.03    0.19    0.00   78.65    2.07    3.91    1.65    0.00    0.04    0.02    0.03    0.00     0.02    0.00    0.01    0.00
   52    0.00    0.00    0.24    0.04    0.00    0.00   78.55    0.10    5.34    0.28    0.00    0.00    0.01    0.00    0.00     0.00    0.00    0.00    0.00
   53    0.00    0.00    0.12    0.04    0.00    0.00   78.55    0.00    5.80    0.17    0.00    0.00    0.00    0.00    0.00     0.00    0.00    0.00    0.00
   54    2.29    0.53    0.21    0.04    0.00    0.00   79.28    0.79    3.16    0.79    0.00    0.02    0.01    0.00    0.00     0.00    0.00    0.00    0.00
   55   11.45    4.35    1.72    0.04    0.96    0.00   80.64    2.14    3.31    6.13    0.19    0.01    0.06    0.21    0.02     4.96    0.00    0.62    0.00
   56    0.00    0.00    0.55    0.05    0.03    0.00   79.78    0.83    5.32    0.61    0.00    0.00    0.01    0.00    0.24     0.02    0.00    0.00    0.00
   57    8.99    3.32    1.32    0.05    0.60    0.00   81.25    1.70    2.89    4.70    0.00    0.00    0.03    0.11    0.63     0.00    0.00    0.00    0.00
   58   11.26    3.84    2.19    0.05    1.27    0.00   82.84    1.56    2.48    6.09    0.00    0.00    0.06    0.25    0.12     0.00    0.00    0.00    0.00
   59    2.05    0.33    0.92    0.06    0.08    0.00   82.44    1.81    3.73    1.32    0.00    0.02    0.02    0.01    0.32     0.01    0.00    0.00    0.00
    2   57.75   18.24   10.50    1.38    4.21    0.00   82.44   18.09  107.98   30.42    0.19    0.45    0.37    0.84    1.34     5.02    0.00    0.64    0.00
   60    3.48    0.98    0.52    0.06    0.05    0.00   82.86    1.85    3.50    1.57    0.00    0.01    0.01    0.00    0.09     0.00    0.00    0.00    0.00
   61    3.66    0.65    0.58    0.06    0.08    0.00   83.34    1.91    3.21    1.30    0.00    0.01    0.01    0.01    0.13     0.00    0.00    0.00    0.00
   62    2.62    0.40    0.46    0.07    0.13    0.00   83.15    1.88    3.07    0.95    0.00    0.02    0.01    0.01    0.12     0.00    0.00    0.00    0.00
   63    0.00    0.00    0.26    0.07    0.01    0.00   81.93    1.21    4.89    0.34    0.00    0.00    0.00    0.00    0.11     0.00    0.00    0.00    0.00
   64    0.00    0.00    0.17    0.07    0.00    0.00   80.66    1.27    6.56    0.25    0.00    0.00    0.00    0.00    1.02     0.00    0.00    0.00    0.00
   65    1.27    0.25    0.15    0.08    0.00    0.00   80.05    1.56    4.25    0.49    0.00    0.49    0.00    0.00    0.57     0.00    0.00    0.00    0.00
   66    0.05    0.00    0.10    0.08    0.00    0.00   78.69    1.41    4.50    0.19    0.00    0.03    0.00    0.00    0.93     0.00    0.00    0.00    0.00
   67    0.00    0.00    0.07    0.08    0.00    0.00   77.38    1.31    3.99    0.16    0.00    0.01    0.00    0.00    1.90     0.00    0.00    0.00    0.00
   68    0.85    0.15    0.08    0.08    0.00    0.00   76.79    1.26    2.88    0.32    0.00    2.59    0.00    0.00    1.36     0.00    0.00    0.00    0.00
   69    6.10    1.09    0.70    0.08    0.08    0.00   77.62    3.00    4.52    1.88    0.00    0.75    0.01    0.02    1.61     0.00    0.00    0.00    0.00
   70    7.35    3.17    0.80    0.08    0.05    0.00   78.25    2.64    4.08    4.06    0.00    0.49    0.01    0.01    1.94     0.01    0.00    0.00    0.00
   71    7.83    1.78    1.17    0.08    0.09    0.00   79.44    3.32    4.85    3.04    0.00    0.45    0.01    0.03    0.80     0.01    0.00    0.00    0.00
   72    0.00    0.00    0.39    0.08    0.00    0.00   76.69    2.75    7.54    0.48    0.00    0.03    0.00    0.00    2.17     0.00    0.00    0.00    0.00
   73    0.01    0.00    0.17    0.08    0.00    0.00   74.44    2.26    6.46    0.26    0.00    0.01    0.00    0.00    2.44     0.00    0.00    0.00    0.00
   74    0.36    0.05    0.10    0.08    0.00    0.00   73.12    1.63    4.52    0.24    0.00    0.39    0.00    0.00    1.05     0.00    0.00    0.00    0.00
   75    1.12    0.21    0.13    0.08    0.00    0.00   71.98    1.96    4.31    0.43    0.00    1.37    0.00    0.00    1.00     0.00    0.00    0.00    0.00
   76    0.86    0.08    0.10    0.08    0.00    0.00   70.77    1.93    4.44    0.27    0.00    0.42    0.00    0.00    1.12     0.00    0.00    0.00    0.00
   77    4.50    1.74    0.44    0.08    0.01    0.00   70.87    2.04    3.89    2.26    0.00    0.03    0.00    0.00    0.81     0.00    0.00    0.00    0.00
   78    8.75    1.74    1.08    0.08    0.10    0.00   73.25    2.97    3.76    2.91    0.00    0.26    0.01    0.03    0.75     0.00    0.00    0.00    0.00
   79    2.77    0.46    0.58    0.08    0.01    0.00   72.79    2.37    3.86    1.13    0.00    1.16    0.01    0.00    1.04     0.00    0.00    0.00    0.00
   80    5.22    0.84    0.83    0.07    0.07    0.00   72.63    3.50    5.09    1.74    0.00    0.77    0.02    0.01    1.51     0.00    0.00    0.00    0.00
   81   11.66    2.78    1.74    0.07    0.15    0.00   75.54    3.65    4.47    4.60    0.00    0.15    0.03    0.08    1.80     0.05    0.00    0.02    0.00
   82    0.08    0.00    0.55    0.07    0.01    0.00   73.02    2.59    5.26    0.63    0.00    0.02    0.01    0.01    2.76     0.00    0.00    0.00    0.00
   83    9.56    2.12    1.27    0.06    0.12    0.00   75.90    2.77    3.16    3.47    0.00    0.06    0.04    0.04    2.62     0.01    0.00    0.00    0.00
   84   16.94    6.70    2.28    0.06    0.30    0.00   80.42    2.47    2.89    9.05    0.00    0.01    0.04    0.08    2.06     0.12    0.00    0.02    0.00
   85    0.02    0.00    0.75    0.06    0.02    0.00   78.26    2.17    3.99    0.82    0.00    0.00    0.02    0.01    2.04     0.00    0.00    0.00    0.00
   86    0.00    0.00    0.33    0.05    0.00    0.00   76.21    2.05    5.22    0.39    0.00    0.00    0.01    0.00    3.87     0.00    0.00    0.00    0.00
   87    1.65    0.32    0.31    0.05    0.00    0.00   74.66    2.72    5.34    0.68    0.00    0.12    0.06    0.00    1.56     0.00    0.00    0.00    0.00
   88    6.75    1.28    0.81    0.04    0.02    0.00   75.44    3.59    4.51    2.14    0.00    0.13    0.14    0.01    1.83     0.00    0.00    0.00    0.00
   89    0.40    0.07    0.30    0.04    0.00    0.00   73.22    2.54    5.66    0.41    0.00    0.07    0.04    0.00    3.68     0.00    0.00    0.00    0.00
   90    0.11    0.00    0.15    0.04    0.00    0.00   71.24    2.09    5.35    0.20    0.00    0.01    0.01    0.00    2.12     0.00    0.00    0.00    0.00
    3  103.96   26.87   17.33    2.18    1.31    0.00   71.24   70.67  140.06   46.67    0.00    9.82    0.51    0.35   46.81     0.22    0.00    0.06    0.00
   91   23.30    9.22    2.39    0.04    0.39    0.00   78.30    2.73    3.77   11.66    0.00    0.00    0.10    0.08    0.75     0.00    0.00    0.00    0.00
   92    2.30    0.46    0.96    0.04    0.03    0.00   76.79    3.03    4.92    1.47    0.00    0.13    0.06    0.01    2.16     0.00    0.00    0.00    0.00
   93    1.66    0.21    0.52    0.04    0.01    0.00   75.68    2.37    4.13    0.78    0.00    0.03    0.03    0.00    2.52     0.01    0.00    0.00    0.00
   94    6.91    0.99    0.93    0.04    0.10    0.00   77.02    3.18    4.70    1.97    0.00    0.03    0.11    0.03    2.17     0.00    0.00    0.00    0.00
   95   12.00    2.37    1.80    0.04    0.35    0.00   80.09    3.78    4.49    4.21    0.00    0.00    0.12    0.11    3.28     0.00    0.00    0.00    0.00
   96   12.56    4.21    2.01    0.04    0.38    0.00   82.62    3.33    3.77    6.27    0.00    0.05    0.15    0.12    1.82     0.07    0.00    0.02    0.00
   97    0.04    0.00    0.74    0.04    0.06    0.00   79.76    2.84    5.23    0.79    0.00    0.00    0.04    0.03    2.67     0.00    0.00    0.00    0.00
   98    3.98    0.82    0.69    0.04    0.02    0.00   79.08    3.28    4.99    1.56    0.00    0.00    0.06    0.01    2.16     0.00    0.00    0.00    0.00
   99    4.13    0.44    0.67    0.04    0.03    0.00   79.23    2.84    4.43    1.16    0.00    0.00    0.04    0.01    2.43     0.00    0.00    0.00    0.00
  100    5.54    1.38    0.83    0.04    0.09    0.00   79.38    2.98    4.70    2.26    0.00    0.00    0.03    0.03    2.41     0.00    0.00    0.00    0.00
  101    0.18    0.05    0.37    0.04    0.02    0.00   76.98    2.51    5.22    0.47    0.00    0.02    0.01    0.01    3.46     0.00    0.00    0.00    0.00
  102    0.00    0.00    0.22    0.04    0.00    0.00   74.69    2.29    5.05    0.26    0.00    0.00    0.00    0.00    4.11     0.00    0.00    0.00    0.00
[...]
     83   8   12         .127E+00   70.00  180.00    5.85    0.00    0.00    0.00    0.20 1392.14   43.30  661.17  641.07    1.30   16.29   64.17   10.26    7.18   43.30
     84   8   12         .455E-01   70.00  180.00   21.18    0.00    0.00    0.00    0.20 1392.14   32.87  731.74  600.24    4.43   14.35   77.76   10.00    7.00   32.87
     85   8   12         .152E-01   70.00  180.00    2.85    0.00    0.00    0.00    0.20 1392.14   44.88  613.31  664.67    0.58    7.78   52.92   10.48    7.33   44.88
     86   9   5          .211E-01   74.00  126.00    6.45    0.00    0.00    0.00    0.20 1033.91   19.24  416.22  548.46    0.09    0.68    0.35    0.97    0.00   19.24
     87   9   5          .566E-01   74.00  126.00   11.85    0.00    0.00    0.00    0.20 1033.91   19.18  430.65  539.55    0.14    0.92    0.64    0.99    0.00   19.18
     88   9   5          .618E-02   74.00  126.00   16.57    0.00    0.00    0.00    0.20 1033.91   19.24  436.19  537.09    0.19    1.08    0.75    1.00    0.00   19.24
     89   9   12         .600E-02   74.00  180.00    6.98    0.00    0.00    0.00    0.20 1033.91    4.14  397.77  593.59    0.01   11.16    1.15    1.85    0.00    4.14
     90   9   12         .227E-02   74.00  180.00   10.67    0.00    0.00    0.00    0.20 1033.91    3.46  415.52  584.28    0.01   10.91    1.17    1.85    0.00    3.46
     91   9   6          .177E-01   74.00   72.00    2.20    0.00    0.00    0.00    0.20 1033.91   18.70  326.22  627.80    0.00    0.44    0.49    1.18    0.00   18.70
     92   9   6          .811E-03   74.00   72.00    3.01    0.00    0.00    0.00    0.20 1033.91   18.34  336.59  627.09    0.00    1.08    0.57    1.21    0.00   18.34
     93   9   6          .243E-02   74.00   72.00    1.42    0.00    0.00    0.00    0.20 1033.91   19.03  314.40  634.29    0.00    0.11    0.17    1.18    0.00   19.03
     94   9   5          .276E-01   70.00  126.00    7.08    0.00    0.00    0.00    0.20 1033.91   14.46  397.75  572.28    0.20    0.99    0.09    9.17    6.42   14.46
     95   9   5          .166E+00   70.00  126.00   12.46    0.00    0.00    0.00    0.20 1033.91   14.42  407.40  567.92    0.31    1.22    0.15    9.27    6.49   14.42
     96   9   5          .143E+00   70.00  126.00   21.18    0.00    0.00    0.00    0.20 1033.91   12.03  422.04  561.67    0.50    1.51    0.26    9.36    6.55   12.03
     97   9   6          .385E-01   70.00   72.00   21.18    0.00    0.00    0.00    0.20 1033.91   11.59  402.94  582.40    0.05    3.83    3.77    8.87    6.21   11.59
     98   9   6          .716E-01   70.00   72.00    4.41    0.00    0.00    0.00    0.20 1033.91   14.11  339.94  630.09    0.01    1.84    2.10    9.33    6.53   14.11
     99   9   6          .809E-01   70.00   72.00    2.66    0.00    0.00    0.00    0.20 1033.91   14.41  311.86  647.40    0.01    0.61    1.37    9.39    6.57   14.41
    100   9   6          .159E-01   70.00   72.00    0.87    0.00    0.00    0.00    0.20 1033.91   14.58  301.17  653.13    0.00    0.09    0.29    9.39    6.57   14.58
    101   9   12         .957E-02   70.00  180.00    6.22    0.00    0.00    0.00    0.20 1033.91    7.02  389.25  599.09    0.04   12.70    2.62   10.03    7.02    7.02
    102   9   12         .143E-01   70.00  180.00   12.17    0.00    0.00    0.00    0.20 1033.91    1.23  432.14  584.98    0.01    9.72    0.82    9.92    6.95    1.23
    103   9   12         .104E-01   70.00  180.00   21.18    0.00    0.00    0.00    0.20 1033.91    0.17  494.65  539.91    0.00    5.45    0.11    9.14    6.40    0.17
    104   9   12         .373E-02   70.00  180.00    3.11    0.00    0.00    0.00    0.20 1033.91    7.32  352.94  620.62    0.02    7.32    1.23   10.22    7.15    7.32
    105   9   5          .350E-01   81.88  126.00   11.74    0.00  183.05    0.00    0.20 1033.91  131.47  182.58  707.07    0.01    6.27    1.26    3.30    0.00  131.47
    106   9   5          .336E-01   81.88  126.00    6.05    0.00  176.03    0.00    0.20 1033.91  131.81  132.09  751.95    0.01    5.25    0.88    3.49    0.00  131.81
    107   9   5          .999E-02   81.88  126.00    2.40    0.00  162.15    0.00    0.20 1033.91  132.74   55.35  819.43    0.00    1.56    0.40    3.75    0.00  132.74
    108   9   5          .835E-02   81.88  126.00   21.18    0.00  194.75    0.00    0.20 1033.91  130.23  253.23  643.77    0.01    6.67    1.44    3.04    0.00  130.23
    109   9   6          .143E-01   81.88   72.00   21.18    0.00  207.93    0.00    0.20 1033.91  130.59  249.87  643.17    0.00    9.66    1.42    3.10    0.00  130.59
    110   9   6          .457E-01   81.88   72.00    2.47    0.00  172.39    0.00    0.20 1033.91  133.98   57.68  806.10    0.00    1.72    0.28    3.76    0.00  133.98
    111   9   6          .174E-01   81.88   72.00    3.84    0.00  176.02    0.00    0.20 1033.91  132.93  116.17  761.94    0.00    4.64    0.40    3.61    0.00  132.93
    112   9   6          .843E-02   81.88   72.00    1.08    0.00  172.36    0.00    0.20 1033.91  135.52   35.55  824.41    0.00    0.49    0.12    3.80    0.00  135.52
    113  10   15         .709E-01   90.40    1.00   21.18    0.00  238.77   10.41    0.20 1392.14 1012.37    0.01  378.94    0.00   32.82    0.11    1.14    0.00 1012.37
    114  10   15         .339E-01   90.40    1.00    0.93    0.00  238.80   10.45    0.20 1392.14 1012.39    0.00  379.04    0.00   30.19    0.11    1.14    0.00 1012.39
    115  10   15         .128E+00   90.40    1.00    2.56    0.00  238.79   10.45    0.20 1392.14 1012.39    0.00  379.03    0.00   30.19    0.11    1.14    0.00 1012.39
    116  10   15         .125E+00   90.40    1.00    4.68    0.00  238.79   10.45    0.20 1392.14 1012.39    0.00  379.00    0.00   30.19    0.11    1.14    0.00 1012.39
    117  10   12         .410E-01   87.60  180.00    2.90    0.00  170.40    0.00    0.20 1392.14  331.05  119.97  918.04    0.01    3.44    2.02    4.95    0.00  331.05
    118  10   12         .128E+00   87.60  180.00    5.36    0.00  187.12    0.00    0.20 1392.14  320.57  276.53  785.09    0.01    8.00    2.83    4.35    0.00  320.57
    119  10   12         .235E-01   87.60  180.00   10.59    0.00  192.70    0.00    0.20 1392.14  319.59  362.59  701.62    0.01    9.84    3.66    3.91    0.00  319.59
    120  10   12         .357E-01   87.60  180.00   21.18    0.00  233.33    0.00    0.20 1392.14  318.85  466.78  600.25    0.02   12.66    4.38    3.39    0.00  318.85
    121  10   12         .281E-01   74.00  180.00    6.00    0.00    0.00    0.00    0.20 1392.14   56.24  663.65  629.26    0.16   15.23   21.43    1.84    0.00   56.24
    122  10   12         .859E-02   74.00  180.00   10.81    0.00    0.00    0.00    0.20 1392.14   56.72  678.19  618.72    0.25   16.76   30.25    1.84    0.00   56.72
    123  10   12         .128E-01   74.00  180.00   21.18    0.00    0.00    0.00    0.20 1392.14   54.65  700.68  605.11    0.48   14.88   48.30    1.84    0.00   54.65
    124  10   12         .313E-02   74.00  180.00    2.95    0.00    0.00    0.00    0.20 1392.14   56.86  614.47  650.79    0.07    6.73   12.47    1.84    0.00   56.86
    125  11   5          .181E+00   70.00  126.00    6.17    0.00    0.00    0.00    0.20 1244.27   47.08  530.01  612.09    2.18    1.21    0.47    9.15    6.41   47.08
    126  11   5          .274E+00   70.00  126.00   12.19    0.00    0.00    0.00    0.20 1244.27   45.57  540.70  610.98    3.70    1.55    0.63    9.29    6.50   45.57
    127  11   5          .281E+00   70.00  126.00   21.18    0.00    0.00    0.00    0.20 1244.27   44.56  564.46  595.48    6.47    1.94    0.81    9.37    6.56   44.56
    128  11   6          .784E-01   70.00   72.00    4.89    0.00    0.00    0.00    0.20 1244.27   44.68  475.56  670.83    0.16    2.14   23.57    9.35    6.54   44.68
    129  11   6          .549E-01   70.00   72.00    2.66    0.00    0.00    0.00    0.20 1244.27   46.81  447.51  682.04    0.08    0.72   14.00    9.38    6.57   46.81
    130  11   6          .988E-02   70.00   72.00   11.21    0.00    0.00    0.00    0.20 1244.27   43.62  500.86  654.60    0.31    3.18   31.26    9.30    6.51   43.62
    131  11   6          .116E-01   70.00   72.00    1.00    0.00    0.00    0.00    0.20 1244.27   47.43  434.19  687.75    0.02    0.18    4.08    9.31    6.51   47.43
    132  11   6          .249E-01   70.00   72.00   21.18    0.00    0.00    0.00    0.20 1244.27   39.57  532.66  634.10    0.62    4.31   38.47    9.16    6.41   39.57
    133  11   12         .122E-01   70.00  180.00    2.63    0.00    0.00    0.00    0.20 1244.27   33.57  474.67  672.25    0.25    5.92   33.31   10.34    7.24   33.57
    134  11   12         .452E-01   70.00  180.00    6.02    0.00    0.00    0.00    0.20 1244.27   32.86  534.72  635.06    0.66   15.30   48.14   10.10    7.07   32.86
    135  11   12         .355E-01   70.00  180.00   11.61    0.00    0.00    0.00    0.20 1244.27   31.82  554.37  622.41    1.15   15.45   53.81    9.99    6.99   31.82
    136  11   12         .311E-01   70.00  180.00   21.18    0.00    0.00    0.00    0.20 1244.27   19.64  620.77  594.79    1.66    9.12   63.17    9.85    6.90   19.64
    137  11   5          .101E-01   74.00  126.00   21.18    0.00    0.00    0.00    0.20 1244.27   59.16  585.43  559.95    0.85    1.62    4.41    1.01    0.00   59.16
    138  11   5          .157E-01   74.00  126.00    6.10    0.00    0.00    0.00    0.20 1244.27   59.01  564.71  567.45    0.28    0.98    1.61    0.99    0.00   59.01
    139  11   5          .139E-01   74.00  126.00   11.56    0.00    0.00    0.00    0.20 1244.27   58.68  573.80  565.72    0.46    1.26    2.65    0.99    0.00   58.68
    140  11   12         .407E-01   74.00  180.00    5.06    0.00    0.00    0.00    0.20 1244.27   40.01  543.49  619.14    0.09   13.16   14.61    1.85    0.00   40.01
    141  11   12         .755E-02   74.00  180.00    2.90    0.00    0.00    0.00    0.20 1244.27   41.14  506.23  635.59    0.05    6.04    9.83    1.85    0.00   41.14
    142  11   12         .472E-02   74.00  180.00   21.18    0.00    0.00    0.00    0.20 1244.27   32.65  602.13  588.54    0.28   11.81   29.91    1.85    0.00   32.65
    143  11   12         .362E-02   74.00  180.00   11.82    0.00    0.00    0.00    0.20 1244.27   35.81  568.02  604.14    0.16   14.52   20.33    1.85    0.00   35.81
    144  11   12         .374E-01   87.60  180.00    5.13    0.00  223.59    0.00    0.20 1244.27  265.11  241.18  732.02    0.00    7.47    2.07    4.16    0.00  265.11
    145  11   12         .198E-01   87.60  180.00    2.78    0.00  180.71    0.00    0.20 1244.27  266.63   87.84  870.11    0.00    2.84    1.29    4.86    0.00  266.63
    146  11   12         .467E-02   87.60  180.00   10.97    0.00  200.00    0.00    0.20 1244.27  264.74  329.25  646.35    0.00    8.22    2.56    3.71    0.00  264.74
    147  11   12         .225E-01   87.60  180.00   21.18    0.00  233.33    0.00    0.20 1244.27  264.39  418.00  558.64    0.00   11.61    3.20    3.23    0.00  264.39
    148  11   15         .627E-03   90.40    1.00    0.67    0.00  231.90   14.84    0.20 1244.27  889.12    0.00  354.81    0.00   55.22    0.09    1.10    0.00  889.12
    149  11   15         .251E-02   90.40    1.00    2.27    0.00  231.89   14.84    0.20 1244.27  889.12    0.00  354.80    0.00   55.27    0.09    1.10    0.00  889.12
    150  11   15         .345E-02   90.40    1.00    5.24    0.00  233.77   15.03    0.20 1244.27  889.24    0.00  354.65    0.00   56.78    0.09    1.10    0.00  889.24
    151  11   15         .643E-02   90.40    1.00   21.18    0.00  233.70   15.02    0.20 1244.27  889.13    0.01  354.70    0.00   56.76    0.09    1.10    0.00  889.13
    152  11   6          .145E-01   81.88   72.00    1.13    0.00  183.97    0.00    0.20 1244.27  207.37   97.84  884.15    0.00    1.06    0.24    3.96    0.00  207.37
    153  11   6          .569E-01   81.88   72.00    2.45    0.00  180.39    0.00    0.20 1244.27  205.87  110.51  875.14    0.00    2.82    0.63    3.93    0.00  205.87
    154  11   6          .378E-01   81.88   72.00    4.32    0.00  185.13    0.00    0.20 1244.27  198.77  162.67  842.94    0.00    6.07    0.95    3.88    0.00  198.77
    155  11   6          .102E-01   81.88   72.00   21.18    0.00  198.56    0.00    0.20 1244.27  186.22  313.90  728.05    0.00   11.54    2.11    3.45    0.00  186.22
    156  11   5          .133E-01   81.88  126.00    5.63    0.00  172.58    0.00    0.20 1244.27  190.26  176.31  841.20    0.02    5.06    1.34    3.75    0.00  190.26
    157  11   5          .300E-02   81.88  126.00    2.80    0.00  166.28    0.00    0.20 1244.27  204.81  119.43  863.18    0.03    2.79    0.93    3.85    0.00  204.81
    158  11   5          .111E-02   81.88  126.00   21.18    0.00  190.59    0.00    0.20 1244.27  184.89  315.58  731.68    0.04    9.05    2.13    3.37    0.00  184.89
    159  11   5          .112E-01   81.88  126.00   10.91    0.00  173.01    0.00    0.20 1244.27  186.76  223.92  812.47    0.03    5.92    1.88    3.62    0.00  186.76



                AVE MONTHLY BASIN VALUES
                   SNOW                      WATER               SED
  MON     RAIN     FALL   SURF Q    LAT Q    YIELD       ET    YIELD      PET
          (MM)     (MM)     (MM)     (MM)     (MM)     (MM)   (T/HA)     (MM)
    1    56.95     0.00    20.93    12.30    38.31    14.47     0.28   120.86
    2    50.56     0.00    15.49    10.10    28.81    15.82     0.26   108.63
    3    84.14     0.00    25.59    12.68    40.59    53.80     0.00   128.55
    4   138.95     0.00    39.03    24.34    65.14    76.48     0.00   127.96
    5   157.45     0.00    49.72    27.16    79.86    83.72     0.00   144.10
    6    96.56     0.00    27.84    14.87    46.12    61.91     0.00   124.73
    7   143.55     0.00    43.60    27.41    73.20    47.44     0.00   130.69
    8    73.98     0.00    21.22    16.01    40.41    34.58     0.00   154.57
    9   190.43     0.00    62.55    41.74   109.45    60.58     0.02   150.01
   10   166.20     0.00    57.71    35.54   103.03    58.15     0.23   135.49
   11   131.21     0.00    42.24    29.06    82.69    52.25     0.07   124.74
   12    62.51     0.00    24.40    12.76    47.15    17.21     0.48   112.34

     AVE ANNUAL BASIN STRESS DAYS
               WATER STRESS DAYS =    68.53
               TEMPERATURE STRESS DAYS =    48.46
               NITROGEN STRESS DAYS =    32.07
               PHOSPHORUS STRESS DAYS =     1.78
               AERATION STRESS DAYS =     0.00
1
    SWAT Sep 7    VER 2018/Rev 670                                                  

    General Input/Output section (file.cio):                                        
    10/24/2022 12:00:00 AM ARCGIS-SWAT interface AV                                 
                                                                                    
         AVE ANNUAL BASIN VALUES

              PRECIP =   1351.3 MM
              SNOW FALL =    0.00 MM
              SNOW MELT =     0.00 MM
              SUBLIMATION =     0.00 MM
              SURFACE RUNOFF Q =   429.97 MM
              LATERAL SOIL Q =  263.75 MM
              TILE Q =     0.00 MM
              GROUNDWATER (SHAL AQ) Q =    56.55 MM
              GROUNDWATER (DEEP AQ) Q =     3.83 MM
              REVAP (SHAL AQ => SOIL/PLANTS) =   31.20 MM
              DEEP AQ RECHARGE =     3.86 MM
              TOTAL AQ RECHARGE =   77.28 MM
              TOTAL WATER YLD =   754.10 MM
              PERCOLATION OUT OF SOIL =   79.35 MM
              ET =    576.0 MM
              PET =   1560.2MM
              TRANSMISSION LOSSES =     0.00 MM
              SEPTIC INFLOW =       0.00 MM
              TOTAL SEDIMENT LOADING =      1.34 T/HA
              TILE FROM IMPOUNDED WATER =     0.000 (MM)
              EVAPORATION FROM IMPOUNDED WATER =     0.000 (MM)
              SEEPAGE INTO SOIL FROM IMPOUNDED WATER =    0.000 (MM)
              OVERFLOW FROM IMPOUNDED WATER =    0.000 (MM)
1
    SWAT Sep 7    VER 2018/Rev 670                                                  

    General Input/Output section (file.cio):                                        
    10/24/2022 12:00:00 AM ARCGIS-SWAT interface AV                                 
                                                                                    
              AVE ANNUAL BASIN VALUES


              NUTRIENTS
                   ORGANIC N =    12.979 (KG/HA)
                   ORGANIC P =     1.821 (KG/HA)
                   NO3 YIELD (SQ) =    10.684 (KG/HA)
                   NO3 YIELD (LAT) =    4.331 (KG/HA)
                   NO3 YIELD (TILE) =    0.000 (KG/HA)
                   SOLP YIELD (TILE) =    0.000(KG/HA)
                   SOLP YIELD (SURF INLET RISER) =    0.000 (KG/HA)
                   SOL P YIELD =    0.027 (KG/HA)
                   NO3 LEACHED =    12.075 (KG/HA)
                   P LEACHED =     0.050 (KG/HA)
                   N UPTAKE =   137.418 (KG/HA)
                   P UPTAKE =   59.117 (KG/HA)
                   NO3 YIELD (GWQ) =     0.046 (KG/HA)
                   ACTIVE TO SOLUTION P FLOW =       -15.769 (KG/HA)
                   ACTIVE TO STABLE P FLOW =       -11.260 (KG/HA)
                   N FERTILIZER APPLIED =   116.759 (KG/HA)
                   P FERTILIZER APPLIED =     0.000 (KG/HA)
                   N FIXATION =     0.000 (KG/HA)
                   DENITRIFICATION =     1.531 (KG/HA)
                   HUMUS MIN ON ACTIVE ORG N =    44.561 (KG/HA)
                   ACTIVE TO STABLE ORG N =   -14.405 (KG/HA)
                   HUMUS MIN ON ACTIVE ORG P =    7.743 (KG/HA)
                   MIN FROM FRESH ORG N =   66.444 (KG/HA)
                   MIN FROM FRESH ORG P =   42.539 (KG/HA)
                   NO3 IN RAINFALL =     5.516 (KG/HA)
                   INITIAL NO3 IN SOIL =      35.411 (KG/HA)
                   FINAL NO3 IN SOIL =        69.975 (KG/HA)
                   INITIAL ORG N IN SOIL =   49504.834 (KG/HA)
                   FINAL ORG N IN SOIL =     49224.295 (KG/HA)
                   INITIAL MIN P IN SOIL =    3286.335 (KG/HA)
                   FINAL MIN P IN SOIL =      3149.734 (KG/HA)
                   INITIAL ORG P IN SOIL =    6064.342 (KG/HA)
                   FINAL ORG P IN SOIL =    6082.540 (KG/HA)
                   NO3 IN FERT =   116.759 (KG/HA)
                   AMMONIA IN FERT =     0.000 (KG/HA)
                   ORG N IN FERT =     0.000 (KG/HA)
                   MINERAL P IN FERT =     1.871 (KG/HA)
                   ORG P IN FERT =     0.000 (KG/HA)
                   N REMOVED IN YIELD =    33.463 (KG/HA)
                   P REMOVED IN YIELD =     5.229 (KG/HA)
                   AMMONIA VOLATILIZATION =     0.000 (KG/HA)
                   AMMONIA NITRIFICATION =      0.000 (KG/HA)
                   NO3 EVAP-LAYER 2 TO 1 =   33.284

                   DIE-GRO P Q =           0.0 (No/M2)
                   DIE-GRO LP Q =           0.0 (No/M2)
                   DIE-GRO P SED =          0.0 (No/M2)
                   DIE-GRO LP SED =          0.0 (No/M2)
                   BACT P RUNOFF =          0.0 (No/M2)
                   BACT LP RUNOFF =          0.0 (No/M2)
                   BACT P SEDIMENT =          0.0 (No/M2)
                   BACT LP SEDIMENT =          0.0 (No/M2)
                   BACT P INCORP =          0.0 (No/M2)
                   BACT LP INCORP =          0.0 (No/M2)

                   NITRATE SEPTIC =         0.00 (kg/ha)
                   AMMONIA SEPTIC =         0.00 (kg/ha)
                   ORG N SEPTIC =         0.00 (kg/ha)
                   FRESH ORGN SEPTIC =         0.00 (kg/ha)
                   ORG P SEPTIC =         0.00 (kg/ha)
                   FRESH ORGP SEPTIC =         0.00 (kg/ha)
                   SOL P SEPTIC =         0.00 (kg/ha)
                   BOD SEPTIC =         0.00 (kg/ha)
