1
    SWAT Sep 7    VER 2018/Rev 670                                                                       0/ 0/   0      0: 0: 0

    General Input/Output section (file.cio):                                        
    10/24/2022 12:00:00 AM ARCGIS-SWAT interface AV                                 
                                                                                    


       SUB      GIS  MON   AREAkm2  PRECIPmm SNOMELTmm     PETmm      ETmm      SWmm    PERCmm    SURQmm    GW_Qmm    WYLDmm  SYLDt/ha ORGNkg/ha ORGPkg/haNSURQkg/ha SOLPkg/ha SEDPkg/ha LAT Q(mm)LATNO3kg/hGWNO3kg/haCHOLAmic/LCBODU mg/L DOXQ mg/L TNO3kg/ha   QTILEmm TVAPkg/ha
BIGSUB    1        0 2018.96875E-01  1574.200     0.000  1532.256   400.825     0.162     1.380  1175.550     0.000  1175.628     0.000     0.098     0.030    16.028     0.046     0.000     0.001     0.000     0.000 .00000E+00 0.000E+00 0.000E+00 0.000E+00 0.000E+00 0.000E+00
BIGSUB    2        0 2018.30250E+00  1600.760     0.000  1534.199   411.191     0.147     1.431  1190.538     0.000  1190.607     0.000     0.109     0.033    13.114     0.047     0.000     0.002     0.000     0.000 .00000E+00 0.000E+00 0.000E+00 0.000E+00 0.000E+00 0.000E+00
BIGSUB    3        0 2018.50047E+00  1600.760     0.000  1534.204   430.311     1.430     3.201  1158.249     1.389  1172.622     0.002     0.178     0.067    13.063     0.047     1.304    12.818     0.109     0.001 .00000E+00 0.000E+00 0.000E+00 0.000E+00 0.000E+00 0.000E+00
BIGSUB    4        0 2018.80328E+00  1408.310     0.000  1535.136   700.841    94.273   108.319   194.508    87.917   705.214     0.246     5.672     1.393     0.538     0.042    16.624   417.006     5.024     0.079 .00000E+00 0.000E+00 0.000E+00 0.000E+00 0.000E+00 0.000E+00
BIGSUB    5        0 2018.81563E+00  1600.760     0.000  1534.214   411.383     0.147     1.431  1190.344     0.000  1190.414     0.000     0.109     0.033    12.517     0.047     0.000     0.002     0.000     0.000 .00000E+00 0.000E+00 0.000E+00 0.000E+00 0.000E+00 0.000E+00
BIGSUB    6        0 2018.13281E+01  1217.410     0.000  1541.890   627.397   133.841   127.683    49.900   100.252   570.142     1.111     8.911     1.253     0.030     0.006     4.923   412.847     4.450     0.055 .00000E+00 0.000E+00 0.000E+00 0.000E+00 0.000E+00 0.000E+00
BIGSUB    7        0 2018.10620E+01  1408.310     0.000  1535.159   606.505    96.621    83.575   356.183    65.234   793.385     0.083     5.494     0.934     4.552     0.029     7.493   367.398     6.459     0.114 .00000E+00 0.000E+00 0.000E+00 0.000E+00 0.000E+00 0.000E+00
BIGSUB    8        0 2018.94750E+00  1408.310     0.000  1535.150   611.795    51.509    39.716   495.402    29.740   796.840     0.042     3.615     0.926     4.941     0.045    13.852   269.448     4.602     0.053 .00000E+00 0.000E+00 0.000E+00 0.000E+00 0.000E+00 0.000E+00
BIGSUB    9        0 2018.86750E+00  1035.550     0.000  1534.530   632.121    90.551   119.392    44.989    87.162   379.968     0.173     0.712     0.177     0.077     0.006     1.655   240.863     1.465     0.025 .00000E+00 0.000E+00 0.000E+00 0.000E+00 0.000E+00 0.000E+00
BIGSUB   10        0 2018.63797E+00  1408.310     0.000  1535.136   557.098    22.469    18.094   686.826    12.743   855.512     0.016     2.149     0.697     7.704     0.054    11.655   154.912     1.969     0.010 .00000E+00 0.000E+00 0.000E+00 0.000E+00 0.000E+00 0.000E+00
BIGSUB   11        0 2018.13817E+01  1225.230     0.000  1542.344   654.177   105.169   155.589    77.178   125.387   552.682     2.087     7.940     1.150     0.276     0.008     3.941   341.400     2.479     0.040 .00000E+00 0.000E+00 0.000E+00 0.000E+00 0.000E+00 0.000E+00
BIGSUB    1        0 2019.96875E-01  1532.460     0.000  1587.029   407.165     3.281     1.281  1120.870     0.000  1120.933     0.000     0.112     0.035    45.834     0.041     0.000     0.002     0.000     0.000 .00000E+00 0.000E+00 0.000E+00 0.000E+00 0.000E+00 0.000E+00
BIGSUB    2        0 2019.30250E+00  1459.020     0.000  1589.869   416.339     3.004     1.329  1038.459     0.000  1038.525     0.000     0.122     0.038    33.106     0.038     0.000     0.003     0.000     0.000 .00000E+00 0.000E+00 0.000E+00 0.000E+00 0.000E+00 0.000E+00
BIGSUB    3        0 2019.50047E+00  1459.020     0.000  1589.874   433.562     5.146     1.568  1008.557     0.118  1020.313     0.000     0.231     0.088    31.747     0.040     1.932    11.554     0.328     0.000 .00000E+00 0.000E+00 0.000E+00 0.000E+00 0.000E+00 0.000E+00
BIGSUB    4        0 2019.80328E+00  1269.980     0.000  1615.198   646.342   106.120    79.715   165.849    56.328   591.459     0.940    13.883     2.382     1.628     0.032    22.743   365.171     8.433     0.056 .00000E+00 0.000E+00 0.000E+00 0.000E+00 0.000E+00 0.000E+00
BIGSUB    5        0 2019.81563E+00  1459.020     0.000  1589.885   416.394     3.004     1.328  1038.402     0.000  1038.469     0.000     0.122     0.038    33.109     0.038     0.000     0.003     0.000     0.000 .00000E+00 0.000E+00 0.000E+00 0.000E+00 0.000E+00 0.000E+00
BIGSUB    6        0 2019.13281E+01  1109.130     0.000  1626.572   619.896   131.710   100.853    25.896    67.322   461.423     0.917     4.397     0.620     0.111     0.004     5.277   363.023     4.895     0.040 .00000E+00 0.000E+00 0.000E+00 0.000E+00 0.000E+00 0.000E+00
BIGSUB    7        0 2019.10620E+01  1269.980     0.000  1615.223   560.537   101.690    66.685   313.062    45.197   685.754     0.661    31.614     4.142    11.490     0.021    11.785   324.069     8.182     0.087 .00000E+00 0.000E+00 0.000E+00 0.000E+00 0.000E+00 0.000E+00
BIGSUB    8        0 2019.94750E+00  1269.980     0.000  1615.213   557.647    61.938    29.338   434.379    19.155   692.830     0.326    15.914     2.436    15.632     0.033    19.940   237.768     7.192     0.040 .00000E+00 0.000E+00 0.000E+00 0.000E+00 0.000E+00 0.000E+00
BIGSUB    9        0 2019.86750E+00   975.250     0.000  1621.951   626.786    91.670    95.155    27.901    57.916   313.215     0.116     0.526     0.157     0.162     0.006     2.146   222.770     2.161     0.022 .00000E+00 0.000E+00 0.000E+00 0.000E+00 0.000E+00 0.000E+00
BIGSUB   10        0 2019.63797E+00  1269.980     0.000  1615.198   511.604    32.542     9.900   602.779     5.782   744.441     0.008     2.051     0.682    24.152     0.039    16.270   135.341     4.130     0.007 .00000E+00 0.000E+00 0.000E+00 0.000E+00 0.000E+00 0.000E+00
BIGSUB   11        0 2019.13817E+01  1175.420     0.000  1605.705   643.162   109.095   146.270    50.322   101.024   488.031     0.596     1.381     0.260     0.712     0.007     3.818   329.996     3.639     0.041 .00000E+00 0.000E+00 0.000E+00 0.000E+00 0.000E+00 0.000E+00
BIGSUB    1        0 2020.96875E-01  2058.130     0.000  1521.479   440.260    14.951     2.603  1603.563     0.000  1603.632     0.000     0.144     0.044    46.104     0.040     0.000     0.003     0.000     0.000 .00000E+00 0.000E+00 0.000E+00 0.000E+00 0.000E+00 0.000E+00
BIGSUB    2        0 2020.30250E+00  1846.330     0.000  1520.877   414.322     5.586     1.612  1427.776     0.000  1427.843     0.000     0.142     0.044    50.598     0.045     0.000     0.004     0.000     0.000 .00000E+00 0.000E+00 0.000E+00 0.000E+00 0.000E+00 0.000E+00
BIGSUB    3        0 2020.50047E+00  1846.330     0.000  1520.883   435.029     9.326     2.520  1390.737     0.326  1404.997     0.002     0.347     0.119    48.555     0.050     3.810    13.844     0.451     0.000 .00000E+00 0.000E+00 0.000E+00 0.000E+00 0.000E+00 0.000E+00
BIGSUB    4        0 2020.80328E+00  1498.120     0.000  1527.061   695.353   119.856    97.568   260.088    67.450   762.971     3.814    36.393     5.169     2.885     0.056    41.312   431.588    10.115     0.098 .00000E+00 0.000E+00 0.000E+00 0.000E+00 0.000E+00 0.000E+00
BIGSUB    5        0 2020.81563E+00  1846.330     0.000  1520.894   414.321     5.585     1.612  1427.775     0.000  1427.843     0.000     0.142     0.044    50.568     0.045     0.000     0.005     0.000     0.000 .00000E+00 0.000E+00 0.000E+00 0.000E+00 0.000E+00 0.000E+00
BIGSUB    6        0 2020.13281E+01  1245.890     0.000  1539.716   585.748   135.422   141.572    66.576    94.549   614.495     9.867    52.057     6.502     0.077     0.007    12.489   447.620     7.106     0.062 .00000E+00 0.000E+00 0.000E+00 0.000E+00 0.000E+00 0.000E+00
BIGSUB    7        0 2020.10620E+01  1498.120     0.000  1527.087   599.953   106.980    73.235   432.880    42.364   865.305     2.337    68.648     8.600    23.423     0.028    21.538   387.168     9.508     0.132 .00000E+00 0.000E+00 0.000E+00 0.000E+00 0.000E+00 0.000E+00
BIGSUB    8        0 2020.94750E+00  1498.120     0.000  1527.077   607.732    69.493    32.468   571.417    18.297   870.256     1.145    33.336     4.369    12.851     0.039    35.398   279.256     8.682     0.062 .00000E+00 0.000E+00 0.000E+00 0.000E+00 0.000E+00 0.000E+00
BIGSUB    9        0 2020.86750E+00  1090.930     0.000  1543.598   595.028    96.671   159.447    39.179   113.950   450.839     0.210     1.239     0.273     0.452     0.009     3.900   291.502     2.813     0.040 .00000E+00 0.000E+00 0.000E+00 0.000E+00 0.000E+00 0.000E+00
BIGSUB   10        0 2020.63797E+00  1498.120     0.000  1527.061   549.662    40.549    13.066   770.217     8.257   936.330     0.047     6.361     1.134    20.842     0.049    29.737   157.358     5.163     0.014 .00000E+00 0.000E+00 0.000E+00 0.000E+00 0.000E+00 0.000E+00
BIGSUB   11        0 2020.13817E+01  1332.160     0.000  1545.761   637.894   111.525   180.939   118.547   133.008   650.167     4.732    17.144     2.358     1.317     0.018     9.490   390.956     4.421     0.067 .00000E+00 0.000E+00 0.000E+00 0.000E+00 0.000E+00 0.000E+00
BIGSUB    1        0  3.0.96875E-01  1721.596     0.000  1546.922   416.083    14.951     1.755  1299.994     0.000  1300.064     0.000     0.118     0.036    35.989     0.042     0.000     0.002     0.000     0.000 .00000E+00 0.000E+00 0.000E+00 0.000E+00 0.000E+00 0.000E+00
BIGSUB    2        0  3.0.30250E+00  1635.370     0.000  1548.315   413.951     5.586     1.457  1218.924     0.000  1218.992     0.000     0.124     0.038    32.272     0.043     0.000     0.003     0.000     0.000 .00000E+00 0.000E+00 0.000E+00 0.000E+00 0.000E+00 0.000E+00
BIGSUB    3        0  3.0.50047E+00  1635.370     0.000  1548.320   432.967     9.326     2.429  1185.848     0.611  1199.311     0.001     0.252     0.091    31.122     0.046     2.348    12.739     0.296     0.000 .00000E+00 0.000E+00 0.000E+00 0.000E+00 0.000E+00 0.000E+00
BIGSUB    4        0  3.0.80328E+00  1392.137     0.000  1559.132   680.845   119.856    95.201   206.815    70.565   686.548     1.667    18.649     2.981     1.683     0.043    26.893   404.589     7.857     0.078 .00000E+00 0.000E+00 0.000E+00 0.000E+00 0.000E+00 0.000E+00
BIGSUB    5        0  3.0.81563E+00  1635.370     0.000  1548.331   414.033     5.585     1.457  1218.841     0.000  1218.908     0.000     0.124     0.038    32.065     0.043     0.000     0.003     0.000     0.000 .00000E+00 0.000E+00 0.000E+00 0.000E+00 0.000E+00 0.000E+00
BIGSUB    6        0  3.0.13281E+01  1190.810     0.000  1569.393   611.014   135.422   123.369    47.457    87.374   548.687     3.965    21.788     2.791     0.073     0.006     7.563   407.830     5.484     0.052 .00000E+00 0.000E+00 0.000E+00 0.000E+00 0.000E+00 0.000E+00
BIGSUB    7        0  3.0.10620E+01  1392.137     0.000  1559.157   588.998   106.980    74.498   367.375    50.932   781.481     1.027    35.252     4.559    13.155     0.026    13.605   359.545     8.050     0.111 .00000E+00 0.000E+00 0.000E+00 0.000E+00 0.000E+00 0.000E+00
BIGSUB    8        0  3.0.94750E+00  1392.137     0.000  1559.147   592.391    69.493    33.841   500.400    22.397   786.642     0.504    17.622     2.577    11.141     0.039    23.063   262.157     6.825     0.051 .00000E+00 0.000E+00 0.000E+00 0.000E+00 0.000E+00 0.000E+00
BIGSUB    9        0  3.0.86750E+00  1033.910     0.000  1566.693   617.978    96.671   124.664    37.356    86.342   381.341     0.166     0.826     0.202     0.230     0.007     2.567   251.712     2.147     0.029 .00000E+00 0.000E+00 0.000E+00 0.000E+00 0.000E+00 0.000E+00
BIGSUB   10        0  3.0.63797E+00  1392.137     0.000  1559.132   539.455    40.549    13.687   686.607     8.928   845.428     0.024     3.520     0.838    17.566     0.048    19.221   149.204     3.754     0.010 .00000E+00 0.000E+00 0.000E+00 0.000E+00 0.000E+00 0.000E+00
BIGSUB   11        0  3.0.13817E+01  1244.270     0.000  1564.603   645.078   111.525   160.933    82.016   119.807   563.627     2.472     8.822     1.256     0.768     0.011     5.749   354.117     3.513     0.049 .00000E+00 0.000E+00 0.000E+00 0.000E+00 0.000E+00 0.000E+00
